*SIMULATION OVERVIEW FILE
  

*DSSAT Cropping System Model Ver. 4.8.2.000 -release  APR 06, 2025 18:58:49

*RUN   1        : WW23_G-1                  CSCER048 CIOB2301    1
 MODEL          : CSCER048 - Wheat
 EXPERIMENT     : CIOB2301 WH ROOTS ANATOMY
 DATA PATH      : C:\DSSAT48\Wheat\
 TREATMENT  1   : WW23_G-1                  CSCER048


 CROP           : Wheat            CULTIVAR : ENTRY 1          ECOTYPE :CAWH01
 STARTING DATE  : SEP  1 2022
 PLANTING DATE  : NOV 23 2022      PLANTS/m2 :   137.0    ROW SPACING :  20.cm
 WEATHER        : CIOB   2022
 SOIL           : CCENEB2301     TEXTURE : C     -   CIMMYT CENEB 710
 SOIL INIT COND : DEPTH:120cm EXTR. H2O: 82.8mm  NO3:484.0kg/ha  NH4:341.8kg/ha
 WATER BALANCE  : IRRIGATE ON REPORTED DATE(S)
 IRRIGATION     :      478 mm IN     8 APPLICATIONS
 NITROGEN BAL.  : SOIL-N & N-UPTAKE SIMULATION; NO N-FIXATION
 N-FERTILIZER   :      323 kg/ha IN     3 APPLICATIONS
 RESIDUE/MANURE : INITIAL :     0 kg/ha ;    2222 kg/ha IN     1 APPLICATIONS
 ENVIRONM. OPT. : DAYL=    0.00  SRAD=    0.00  TMAX=    0.00  TMIN=    0.00
                  RAIN=    0.00  CO2 =    0.00  DEW =    0.00  WIND=    0.00
 SIMULATION OPT : WATER   :Y  NITROGEN:Y  N-FIX:N  PHOSPH :N  PESTS  :N
                  PHOTO   :C  ET      :R  INFIL:S  HYDROL :R  SOM    :G
                  CO2 418ppm  NSWIT   :1  EVAP :R  SOIL   :2  STEMP  :D
 MANAGEMENT OPT : PLANTING:R  IRRIG   :R  FERT :R  RESIDUE:R  HARVEST:M
                  WEATHER :M  TILLAGE :Y

*SUMMARY OF SOIL AND GENETIC INPUT PARAMETERS

   SOIL LOWER UPPER   SAT  EXTR  INIT   ROOT   BULK     pH    NO3    NH4    ORG
  DEPTH LIMIT LIMIT    SW    SW    SW   DIST   DENS                          C
   cm   cm3/cm3    cm3/cm3    cm3/cm3         g/cm3         ugN/g  ugN/g     %
-------------------------------------------------------------------------------
  0-  5 0.143 0.204 0.268 0.061 0.172   1.00   1.35   8.50  29.00  29.00   1.08
  5- 15 0.143 0.204 0.268 0.061 0.172   1.00   1.35   8.50  29.00  29.00   1.08
 15- 30 0.143 0.204 0.268 0.061 0.172   1.00   1.35   8.50  29.00  29.00   1.08
 30- 45 0.166 0.234 0.274 0.068 0.225   0.41   1.58   8.50  27.00  16.00   0.46
 45- 60 0.166 0.234 0.274 0.068 0.225   0.41   1.58   8.50  27.00  16.00   0.46
 60- 90 0.155 0.227 0.276 0.072 0.207   0.22   1.50   8.00  53.00  33.00   0.39
 90-120 0.188 0.263 0.308 0.075 0.263   0.12   1.38   8.00   0.01   0.01   0.40

TOT-120  19.6  27.8  33.8   8.3  26.0  <--cm   -  kg/ha-->  484.0  341.8  99654
SOIL ALBEDO    : 0.13      EVAPORATION LIMIT : 6.00         MIN. FACTOR  : 1.00
RUNOFF CURVE # :61.00      DRAINAGE RATE     : 0.60         FERT. FACTOR : 1.00

 Wheat            CULTIVAR: 555175-ENTRY 1            ECOTYPE: CAWH01
   P1V   P1D    P5    G1    G2    G3 PHINT
  21.2  52.9 629.1  17.8  47.0  3.06  86.0


*SIMULATED CROP AND SOIL STATUS AT MAIN DEVELOPMENT STAGES
  
 RUN NO.      1   ROOTS ANATOMY                                               

 ...... DATE ......  GROWTH STAGE BIOMASS   LEAF       CROP N      STRESS
 YEARDOY DOM MON DAP ............. kg/ha AREA NUMBER  kg/ha   %   H2O    N
 2022327  23 Nov   0 7 Sowing         0  0.00   0.0     0   0.0  0.00  0.00
 2022328  24 Nov   1 8 Germinate      0  0.00   0.0     0   0.0  0.00  0.00
 2022330  26 Nov   3 9 Emergence      0  0.00   0.0     0   0.0  0.00  0.00
 2023028  28 Jan  66 1 Term Spklt  3768  4.22  13.2   148   3.9  0.10  0.04
 2023045  14 Feb  83 2 End Veg     6762  7.96  16.3   227   3.4  0.00  0.00
 2023056  25 Feb  94 3 End Ear Gr  8821  6.84  16.3   224   2.5  0.00  0.00
 2023069  10 Mar 107 4 Beg Gr Fil 12200  3.48  16.3   224   1.8  0.04  0.00
 2023102  12 Apr 140 5 End Gr Fil 18370  0.00  16.3   287   1.6  0.00  0.00
 2023102  12 Apr 140 6 Harvest    18370  0.00  16.3   287   1.6  0.00  0.00
  
 BIOMASS = Above-ground dry wt (kg/ha)
 LEAF AREA  = Leaf area index (m2/m2)
 LEAF NUMBER  = Leaf number produced on main axis
 CROP N  = Above-ground N (kg/ha)
 CROP N% = Above-ground N conc (%)
 H2O STRESS = Photosynthesis stress,average (0-1,0=none)
 N STRESS = Photosynthesis stress,average (0-1,0=none)
  

*MAIN GROWTH AND DEVELOPMENT VARIABLES

@     VARIABLE                             SIMULATED     MEASURED
      --------                             ---------     --------
      Emergence (DAP)                            3            7
      Anthesis (DAP)                            97           97
      Maturity (DAP)                           140          140
      Product wt (kg dm/ha;no loss)           7921         6797
      Product unit weight (g dm)             0.047        0.047
      Product number (no/m2)                 16853        14451
      Product number (no/group)               20.8        -99.0
      Product harvest index (ratio)           0.43         0.43
      Maximum leaf area index                  8.0          5.7
      Final leaf number (one axis)            16.3        -99.0
      Final shoot number (#/m2)                811          -99
      Canopy (tops) wt (kg dm/ha)            18370        15757
      Vegetative wt (kg dm/ha)               10449         8960
      Root wt (kg dm/ha)                      1342          -99
      Assimilate wt (kg dm/ha)               21218          -99
      Senesced wt (kg dm/ha)                   593          -99
      Reserves wt (kg dm/ha)                  4266          -99
      N uptake (kg/ha)                       314.4        -99.0
      N senesced (kg/ha)                       8.2        -99.0
      Above-ground N (kg/ha)                 287.4        -99.0
      Root N (kg/ha)                          19.5        -99.0
      Vegetative N (kg/ha)                    46.4        -99.0
      Product N (kg/ha)                      241.0        139.5
      Product N harvest index (ratio)         0.84       -99.00
      Product N (%)                            3.0          2.1
      Vegetative N (%)                         0.4        -99.0
      Leaf+stem wt,anthesis (kg dm/ha)        9609          -99
      Leaf+stem N,anthesis (kg/ha)           223.8        -99.0
      Leaf N,anthesis (%)                      3.0        -99.0

  Seed N must be added to N uptake to obtain a         
  balance with N in above-ground plus root material    

  Measured data are obtained from the A file,either    
  directly or by calculation from other other variables
  using the expressions given below:                   
                                                       
  Product wt       Harvest wt (HWAH) /                 
                               (Harvest%/100) (HPC)    
  Canopy wt        Grain wt (HWAM)+Vegetative wt (VWAm)
  Vegetative wt    Canopy wt (CWAM) - grain wt (HWAM)  
    = leaf+stem+retained dead material                 
  Product unit wt  Grain yield (HWAM)/Grain # (G#AM)   
  Product #/area   Product#/tiller (H#SM) *            
                                   tiller number (T#AM)
  Product #/group  Product#/area (H#AM) /              
                                tiller number (T#AM)   
  Harvest index    Product wt (HWAM)/Canopy wt.(CWAM)  
                                                       
  The same procedure is followed for nitrogen aspects  


*ENVIRONMENTAL AND STRESS FACTORS

 |-----Development Phase------|-------------Environment--------------|----------------Stress-----------------|
                              |--------Average-------|---Cumulative--|         (0=Min, 1=Max Stress)         |
                         Time  Temp  Temp Solar Photop         Evapo |----Water---|--Nitrogen--|--Phosphorus-|
                         Span   Max   Min   Rad  [day]   Rain  Trans  Photo         Photo         Photo
                         days    °C    °C MJ/m2     hr     mm     mm  synth Growth ' synth Growth  synth Growth
--------------------------------------------------------------------------------------------------------------
 Germinate  - Term Spklt   63  26.2   7.1  14.3  11.36   10.0  111.3  0.103  0.163  0.037  0.037 -99.00 -99.00
 Term Spklt - End Veg      17  25.5   5.7  15.7  11.77    0.1   52.5  0.000  0.010  0.000  0.000 -99.00 -99.00
 End Veg    - End Ear Gr   11  22.9   8.4  14.9  12.08   12.1   31.8  0.000  0.000  0.000  0.000 -99.00 -99.00
 End Ear Gr - Beg Gr Fil   13  26.6   6.1  19.8  12.38    0.1   49.7  0.037  0.082  0.000  0.000 -99.00 -99.00
 Beg Gr Fil - End Gr Fil   33  29.4   8.9  23.1  13.01   65.8   97.8  0.000  0.000  0.000  0.000 -99.00 -99.00
  
 Germinate  - End Gr Fil  137  26.7   7.4  17.2  11.96   88.1  343.1  0.051  0.084  0.017  0.017 -99.00 -99.00
--------------------------------------------------------------------------------------------------------------


*RESOURCE PRODUCTIVITY

 Growing season length: 137 days 

 Precipitation during growth season         88.1 mm[rain]
   Dry Matter Productivity                 20.85 kg[DM]/m3[rain]          =  208.5 kg[DM]/ha per mm[rain]
   Yield Productivity                       8.99 kg[grain yield]/m3[rain] =   89.9 kg[yield]/ha per mm[rain]

 Evapotranspiration during growth season   343.1 mm[ET]
   Dry Matter Productivity                  5.35 kg[DM]/m3[ET]            =   53.5 kg[DM]/ha per mm[ET]
   Yield Productivity                       2.31 kg[grain yield]/m3[ET]   =   23.1 kg[yield]/ha per mm[ET]

 Transpiration during growth season        285.1 mm[EP]
   Dry Matter Productivity                  6.44 kg[DM]/m3[EP]            =   64.4 kg[DM]/ha per mm[EP]
   Yield Productivity                       2.78 kg[grain yield]/m3[EP]   =   27.8 kg[yield]/ha per mm[EP]

 Irrigation during growing season          478.4 mm[irrig]
   Dry Matter Productivity                  3.84 kg[DM]/m3[irrig]         =   38.4 kg[DM]/ha per mm[irrig]
   Yield Productivity                       1.66 kg[grain yield]/m3[irrig]=   16.6 kg[yield]/ha per mm[irrig]

 N applied during growing season           323.0 kg[N applied]/ha
   Dry Matter Productivity                  56.9 kg[DM]/kg[N applied]
   Yield Productivity                       24.5 kg[yield]/kg[N applied]

 N uptake during growing season            314.4 kg[N uptake]/ha
   Dry Matter Productivity                  58.4 kg[DM]/kg[N uptake]
   Yield Productivity                       25.2 kg[yield]/kg[N uptake]

--------------------------------------------------------------------------------------------------------------

          WHEAT YIELD :     7921 kg/ha    [Dry weight] 

**************************************************************************************************************
  

*DSSAT Cropping System Model Ver. 4.8.2.000 -release  APR 06, 2025 18:58:49

*RUN   2        : WW23_G-2                  CSCER048 CIOB2301    2
 MODEL          : CSCER048 - Wheat
 EXPERIMENT     : CIOB2301 WH ROOTS ANATOMY
 DATA PATH      : C:\DSSAT48\Wheat\
 TREATMENT  2   : WW23_G-2                  CSCER048


 CROP           : Wheat            CULTIVAR : ENTRY 2          ECOTYPE :CAWH01
 STARTING DATE  : SEP  1 2022
 PLANTING DATE  : NOV 23 2022      PLANTS/m2 :   137.0    ROW SPACING :  20.cm
 WEATHER        : CIOB   2022
 SOIL           : CCENEB2301     TEXTURE : C     -   CIMMYT CENEB 710
 SOIL INIT COND : DEPTH:120cm EXTR. H2O: 82.8mm  NO3:484.0kg/ha  NH4:341.8kg/ha
 WATER BALANCE  : IRRIGATE ON REPORTED DATE(S)
 IRRIGATION     :      478 mm IN     8 APPLICATIONS
 NITROGEN BAL.  : SOIL-N & N-UPTAKE SIMULATION; NO N-FIXATION
 N-FERTILIZER   :      323 kg/ha IN     3 APPLICATIONS
 RESIDUE/MANURE : INITIAL :     0 kg/ha ;    2222 kg/ha IN     1 APPLICATIONS
 ENVIRONM. OPT. : DAYL=    0.00  SRAD=    0.00  TMAX=    0.00  TMIN=    0.00
                  RAIN=    0.00  CO2 =    0.00  DEW =    0.00  WIND=    0.00
 SIMULATION OPT : WATER   :Y  NITROGEN:Y  N-FIX:N  PHOSPH :N  PESTS  :N
                  PHOTO   :C  ET      :R  INFIL:S  HYDROL :R  SOM    :G
                  CO2 418ppm  NSWIT   :1  EVAP :R  SOIL   :2  STEMP  :D
 MANAGEMENT OPT : PLANTING:R  IRRIG   :R  FERT :R  RESIDUE:R  HARVEST:M
                  WEATHER :M  TILLAGE :Y

*SUMMARY OF SOIL AND GENETIC INPUT PARAMETERS

   SOIL LOWER UPPER   SAT  EXTR  INIT   ROOT   BULK     pH    NO3    NH4    ORG
  DEPTH LIMIT LIMIT    SW    SW    SW   DIST   DENS                          C
   cm   cm3/cm3    cm3/cm3    cm3/cm3         g/cm3         ugN/g  ugN/g     %
-------------------------------------------------------------------------------
  0-  5 0.143 0.204 0.268 0.061 0.172   1.00   1.35   8.50  29.00  29.00   1.08
  5- 15 0.143 0.204 0.268 0.061 0.172   1.00   1.35   8.50  29.00  29.00   1.08
 15- 30 0.143 0.204 0.268 0.061 0.172   1.00   1.35   8.50  29.00  29.00   1.08
 30- 45 0.166 0.234 0.274 0.068 0.225   0.41   1.58   8.50  27.00  16.00   0.46
 45- 60 0.166 0.234 0.274 0.068 0.225   0.41   1.58   8.50  27.00  16.00   0.46
 60- 90 0.155 0.227 0.276 0.072 0.207   0.22   1.50   8.00  53.00  33.00   0.39
 90-120 0.188 0.263 0.308 0.075 0.263   0.12   1.38   8.00   0.01   0.01   0.40

TOT-120  19.6  27.8  33.8   8.3  26.0  <--cm   -  kg/ha-->  484.0  341.8  99654
SOIL ALBEDO    : 0.13      EVAPORATION LIMIT : 6.00         MIN. FACTOR  : 1.00
RUNOFF CURVE # :61.00      DRAINAGE RATE     : 0.60         FERT. FACTOR : 1.00

 Wheat            CULTIVAR: 457793-ENTRY 2            ECOTYPE: CAWH01
   P1V   P1D    P5    G1    G2    G3 PHINT
   8.0  52.0 644.2  20.4  41.5  1.58  86.0


*SIMULATED CROP AND SOIL STATUS AT MAIN DEVELOPMENT STAGES
  
 RUN NO.      2   ROOTS ANATOMY                                               

 ...... DATE ......  GROWTH STAGE BIOMASS   LEAF       CROP N      STRESS
 YEARDOY DOM MON DAP ............. kg/ha AREA NUMBER  kg/ha   %   H2O    N
 2022327  23 Nov   0 7 Sowing         0  0.00   0.0     0   0.0  0.00  0.00
 2022328  24 Nov   1 8 Germinate      0  0.00   0.0     0   0.0  0.00  0.00
 2022330  26 Nov   3 9 Emergence      0  0.00   0.0     0   0.0  0.00  0.00
 2023027  27 Jan  65 1 Term Spklt  3644  4.01  13.0   138   3.8  0.10  0.04
 2023044  13 Feb  82 2 End Veg     6617  7.84  16.1   220   3.3  0.00  0.00
 2023055  24 Feb  93 3 End Ear Gr  8727  6.85  16.1   217   2.5  0.00  0.00
 2023068   9 Mar 106 4 Beg Gr Fil 11967  3.65  16.1   217   1.8  0.04  0.00
 2023101  11 Apr 139 5 End Gr Fil 18861  0.00  16.1   276   1.5  0.00  0.01
 2023101  11 Apr 139 6 Harvest    18861  0.00  16.1   276   1.5  0.00  0.00
  

*MAIN GROWTH AND DEVELOPMENT VARIABLES

@     VARIABLE                             SIMULATED     MEASURED
      --------                             ---------     --------
      Emergence (DAP)                            3            7
      Anthesis (DAP)                            96           96
      Maturity (DAP)                           139          139
      Product wt (kg dm/ha;no loss)           7851         6933
      Product unit weight (g dm)             0.042        0.042
      Product number (no/m2)                 18917        16392
      Product number (no/group)               15.1        -99.0
      Product harvest index (ratio)           0.42         0.41
      Maximum leaf area index                  7.8          6.1
      Final leaf number (one axis)            16.1        -99.0
      Final shoot number (#/m2)               1257          -99
      Canopy (tops) wt (kg dm/ha)            18861        16796
      Vegetative wt (kg dm/ha)               11009         9863
      Root wt (kg dm/ha)                      1317          -99
      Assimilate wt (kg dm/ha)               21619          -99
      Senesced wt (kg dm/ha)                   548          -99
      Reserves wt (kg dm/ha)                  4953          -99
      N uptake (kg/ha)                       302.0        -99.0
      N senesced (kg/ha)                       7.6        -99.0
      Above-ground N (kg/ha)                 276.4        -99.0
      Root N (kg/ha)                          18.8        -99.0
      Vegetative N (kg/ha)                    45.5        -99.0
      Product N (kg/ha)                      230.9        142.3
      Product N harvest index (ratio)         0.84       -99.00
      Product N (%)                            2.9          2.1
      Vegetative N (%)                         0.4        -99.0
      Leaf+stem wt,anthesis (kg dm/ha)        9445          -99
      Leaf+stem N,anthesis (kg/ha)           216.9        -99.0
      Leaf N,anthesis (%)                      3.0        -99.0

*ENVIRONMENTAL AND STRESS FACTORS

 |-----Development Phase------|-------------Environment--------------|----------------Stress-----------------|
                              |--------Average-------|---Cumulative--|         (0=Min, 1=Max Stress)         |
                         Time  Temp  Temp Solar Photop         Evapo |----Water---|--Nitrogen--|--Phosphorus-|
                         Span   Max   Min   Rad  [day]   Rain  Trans  Photo         Photo         Photo
                         days    °C    °C MJ/m2     hr     mm     mm  synth Growth ' synth Growth  synth Growth
--------------------------------------------------------------------------------------------------------------
 Germinate  - Term Spklt   62  26.2   7.1  14.3  11.35   10.0  108.4  0.105  0.166  0.038  0.038 -99.00 -99.00
 Term Spklt - End Veg      17  25.6   5.8  15.6  11.75    0.1   52.2  0.000  0.011  0.000  0.000 -99.00 -99.00
 End Veg    - End Ear Gr   11  22.9   8.1  15.3  12.06   12.1   32.4  0.000  0.000  0.000  0.000 -99.00 -99.00
 End Ear Gr - Beg Gr Fil   13  26.0   6.1  19.0  12.36    0.1   47.2  0.042  0.086  0.000  0.000 -99.00 -99.00
 Beg Gr Fil - End Gr Fil   33  29.4   8.8  23.1  12.98   65.8  108.4  0.000  0.000  0.012  0.012 -99.00 -99.00
  
 Germinate  - End Gr Fil  136  26.6   7.3  17.1  11.95   88.1  348.7  0.052  0.085  0.020  0.020 -99.00 -99.00
--------------------------------------------------------------------------------------------------------------


*RESOURCE PRODUCTIVITY

 Growing season length: 136 days 

 Precipitation during growth season         88.1 mm[rain]
   Dry Matter Productivity                 21.41 kg[DM]/m3[rain]          =  214.1 kg[DM]/ha per mm[rain]
   Yield Productivity                       8.91 kg[grain yield]/m3[rain] =   89.1 kg[yield]/ha per mm[rain]

 Evapotranspiration during growth season   348.7 mm[ET]
   Dry Matter Productivity                  5.41 kg[DM]/m3[ET]            =   54.1 kg[DM]/ha per mm[ET]
   Yield Productivity                       2.25 kg[grain yield]/m3[ET]   =   22.5 kg[yield]/ha per mm[ET]

 Transpiration during growth season        290.8 mm[EP]
   Dry Matter Productivity                  6.49 kg[DM]/m3[EP]            =   64.9 kg[DM]/ha per mm[EP]
   Yield Productivity                       2.70 kg[grain yield]/m3[EP]   =   27.0 kg[yield]/ha per mm[EP]

 Irrigation during growing season          478.4 mm[irrig]
   Dry Matter Productivity                  3.94 kg[DM]/m3[irrig]         =   39.4 kg[DM]/ha per mm[irrig]
   Yield Productivity                       1.64 kg[grain yield]/m3[irrig]=   16.4 kg[yield]/ha per mm[irrig]

 N applied during growing season           323.0 kg[N applied]/ha
   Dry Matter Productivity                  58.4 kg[DM]/kg[N applied]
   Yield Productivity                       24.3 kg[yield]/kg[N applied]

 N uptake during growing season            302.0 kg[N uptake]/ha
   Dry Matter Productivity                  62.5 kg[DM]/kg[N uptake]
   Yield Productivity                       26.0 kg[yield]/kg[N uptake]

--------------------------------------------------------------------------------------------------------------

          WHEAT YIELD :     7851 kg/ha    [Dry weight] 

**************************************************************************************************************
  

*DSSAT Cropping System Model Ver. 4.8.2.000 -release  APR 06, 2025 18:58:49

*RUN   3        : WW23_G-3                  CSCER048 CIOB2301    3
 MODEL          : CSCER048 - Wheat
 EXPERIMENT     : CIOB2301 WH ROOTS ANATOMY
 DATA PATH      : C:\DSSAT48\Wheat\
 TREATMENT  3   : WW23_G-3                  CSCER048


 CROP           : Wheat            CULTIVAR : ENTRY 3          ECOTYPE :CAWH01
 STARTING DATE  : SEP  1 2022
 PLANTING DATE  : NOV 23 2022      PLANTS/m2 :   137.0    ROW SPACING :  20.cm
 WEATHER        : CIOB   2022
 SOIL           : CCENEB2301     TEXTURE : C     -   CIMMYT CENEB 710
 SOIL INIT COND : DEPTH:120cm EXTR. H2O: 82.8mm  NO3:484.0kg/ha  NH4:341.8kg/ha
 WATER BALANCE  : IRRIGATE ON REPORTED DATE(S)
 IRRIGATION     :      478 mm IN     8 APPLICATIONS
 NITROGEN BAL.  : SOIL-N & N-UPTAKE SIMULATION; NO N-FIXATION
 N-FERTILIZER   :      323 kg/ha IN     3 APPLICATIONS
 RESIDUE/MANURE : INITIAL :     0 kg/ha ;    2222 kg/ha IN     1 APPLICATIONS
 ENVIRONM. OPT. : DAYL=    0.00  SRAD=    0.00  TMAX=    0.00  TMIN=    0.00
                  RAIN=    0.00  CO2 =    0.00  DEW =    0.00  WIND=    0.00
 SIMULATION OPT : WATER   :Y  NITROGEN:Y  N-FIX:N  PHOSPH :N  PESTS  :N
                  PHOTO   :C  ET      :R  INFIL:S  HYDROL :R  SOM    :G
                  CO2 418ppm  NSWIT   :1  EVAP :R  SOIL   :2  STEMP  :D
 MANAGEMENT OPT : PLANTING:R  IRRIG   :R  FERT :R  RESIDUE:R  HARVEST:M
                  WEATHER :M  TILLAGE :Y

*SUMMARY OF SOIL AND GENETIC INPUT PARAMETERS

   SOIL LOWER UPPER   SAT  EXTR  INIT   ROOT   BULK     pH    NO3    NH4    ORG
  DEPTH LIMIT LIMIT    SW    SW    SW   DIST   DENS                          C
   cm   cm3/cm3    cm3/cm3    cm3/cm3         g/cm3         ugN/g  ugN/g     %
-------------------------------------------------------------------------------
  0-  5 0.143 0.204 0.268 0.061 0.172   1.00   1.35   8.50  29.00  29.00   1.08
  5- 15 0.143 0.204 0.268 0.061 0.172   1.00   1.35   8.50  29.00  29.00   1.08
 15- 30 0.143 0.204 0.268 0.061 0.172   1.00   1.35   8.50  29.00  29.00   1.08
 30- 45 0.166 0.234 0.274 0.068 0.225   0.41   1.58   8.50  27.00  16.00   0.46
 45- 60 0.166 0.234 0.274 0.068 0.225   0.41   1.58   8.50  27.00  16.00   0.46
 60- 90 0.155 0.227 0.276 0.072 0.207   0.22   1.50   8.00  53.00  33.00   0.39
 90-120 0.188 0.263 0.308 0.075 0.263   0.12   1.38   8.00   0.01   0.01   0.40

TOT-120  19.6  27.8  33.8   8.3  26.0  <--cm   -  kg/ha-->  484.0  341.8  99654
SOIL ALBEDO    : 0.13      EVAPORATION LIMIT : 6.00         MIN. FACTOR  : 1.00
RUNOFF CURVE # :61.00      DRAINAGE RATE     : 0.60         FERT. FACTOR : 1.00

 Wheat            CULTIVAR: 518062-ENTRY 3            ECOTYPE: CAWH01
   P1V   P1D    P5    G1    G2    G3 PHINT
  33.1  49.5 622.1  18.2  48.5  0.89  86.0


*SIMULATED CROP AND SOIL STATUS AT MAIN DEVELOPMENT STAGES
  
 RUN NO.      3   ROOTS ANATOMY                                               

 ...... DATE ......  GROWTH STAGE BIOMASS   LEAF       CROP N      STRESS
 YEARDOY DOM MON DAP ............. kg/ha AREA NUMBER  kg/ha   %   H2O    N
 2022327  23 Nov   0 7 Sowing         0  0.00   0.0     0   0.0  0.00  0.00
 2022328  24 Nov   1 8 Germinate      0  0.00   0.0     0   0.0  0.00  0.00
 2022330  26 Nov   3 9 Emergence      0  0.00   0.0     0   0.0  0.00  0.00
 2023026  26 Jan  64 1 Term Spklt  3517  3.80  12.9   131   3.7  0.11  0.04
 2023043  12 Feb  81 2 End Veg     6516  7.76  16.0   216   3.3  0.00  0.00
 2023054  23 Feb  92 3 End Ear Gr  8603  6.93  16.0   214   2.5  0.00  0.00
 2023067   8 Mar 105 4 Beg Gr Fil 11718  3.83  16.0   213   1.8  0.04  0.00
 2023100  10 Apr 138 5 End Gr Fil 18693  0.00  16.0   290   1.6  0.00  0.01
 2023100  10 Apr 138 6 Harvest    18693  0.00  16.0   290   1.6  0.00  0.00
  

*MAIN GROWTH AND DEVELOPMENT VARIABLES

@     VARIABLE                             SIMULATED     MEASURED
      --------                             ---------     --------
      Emergence (DAP)                            3            7
      Anthesis (DAP)                            95           95
      Maturity (DAP)                           138          138
      Product wt (kg dm/ha;no loss)           8154         7260
      Product unit weight (g dm)             0.048        0.049
      Product number (no/m2)                 16812        14914
      Product number (no/group)                8.6        -99.0
      Product harvest index (ratio)           0.44         0.43
      Maximum leaf area index                  7.8          5.6
      Final leaf number (one axis)            16.0        -99.0
      Final shoot number (#/m2)               1946          -99
      Canopy (tops) wt (kg dm/ha)            18693        16824
      Vegetative wt (kg dm/ha)               10539         9564
      Root wt (kg dm/ha)                      1294          -99
      Assimilate wt (kg dm/ha)               21384          -99
      Senesced wt (kg dm/ha)                   521          -99
      Reserves wt (kg dm/ha)                  4640          -99
      N uptake (kg/ha)                       315.2        -99.0
      N senesced (kg/ha)                       7.2        -99.0
      Above-ground N (kg/ha)                 290.0        -99.0
      Root N (kg/ha)                          18.8        -99.0
      Vegetative N (kg/ha)                    44.4        -99.0
      Product N (kg/ha)                      245.6        139.3
      Product N harvest index (ratio)         0.85       -99.00
      Product N (%)                            3.0          1.9
      Vegetative N (%)                         0.4        -99.0
      Leaf+stem wt,anthesis (kg dm/ha)        9218          -99
      Leaf+stem N,anthesis (kg/ha)           213.3        -99.0
      Leaf N,anthesis (%)                      3.0        -99.0

*ENVIRONMENTAL AND STRESS FACTORS

 |-----Development Phase------|-------------Environment--------------|----------------Stress-----------------|
                              |--------Average-------|---Cumulative--|         (0=Min, 1=Max Stress)         |
                         Time  Temp  Temp Solar Photop         Evapo |----Water---|--Nitrogen--|--Phosphorus-|
                         Span   Max   Min   Rad  [day]   Rain  Trans  Photo         Photo         Photo
                         days    °C    °C MJ/m2     hr     mm     mm  synth Growth ' synth Growth  synth Growth
--------------------------------------------------------------------------------------------------------------
 Germinate  - Term Spklt   61  26.3   7.2  14.3  11.35   10.0  106.0  0.107  0.169  0.038  0.038 -99.00 -99.00
 Term Spklt - End Veg      17  25.8   5.5  15.7  11.73    0.1   52.5  0.000  0.011  0.000  0.000 -99.00 -99.00
 End Veg    - End Ear Gr   11  22.8   8.3  15.1  12.03   12.1   32.1  0.000  0.000  0.000  0.000 -99.00 -99.00
 End Ear Gr - Beg Gr Fil   13  25.3   5.8  18.4  12.33    0.1   44.8  0.045  0.089  0.000  0.000 -99.00 -99.00
 Beg Gr Fil - End Gr Fil   33  29.3   8.8  22.9  12.95   65.8  110.3  0.000  0.000  0.012  0.012 -99.00 -99.00
  
 Germinate  - End Gr Fil  135  26.6   7.3  17.1  11.94   88.1  345.8  0.052  0.086  0.020  0.020 -99.00 -99.00
--------------------------------------------------------------------------------------------------------------


*RESOURCE PRODUCTIVITY

 Growing season length: 135 days 

 Precipitation during growth season         88.1 mm[rain]
   Dry Matter Productivity                 21.22 kg[DM]/m3[rain]          =  212.2 kg[DM]/ha per mm[rain]
   Yield Productivity                       9.26 kg[grain yield]/m3[rain] =   92.6 kg[yield]/ha per mm[rain]

 Evapotranspiration during growth season   345.8 mm[ET]
   Dry Matter Productivity                  5.41 kg[DM]/m3[ET]            =   54.1 kg[DM]/ha per mm[ET]
   Yield Productivity                       2.36 kg[grain yield]/m3[ET]   =   23.6 kg[yield]/ha per mm[ET]

 Transpiration during growth season        287.7 mm[EP]
   Dry Matter Productivity                  6.50 kg[DM]/m3[EP]            =   65.0 kg[DM]/ha per mm[EP]
   Yield Productivity                       2.83 kg[grain yield]/m3[EP]   =   28.3 kg[yield]/ha per mm[EP]

 Irrigation during growing season          478.4 mm[irrig]
   Dry Matter Productivity                  3.91 kg[DM]/m3[irrig]         =   39.1 kg[DM]/ha per mm[irrig]
   Yield Productivity                       1.70 kg[grain yield]/m3[irrig]=   17.0 kg[yield]/ha per mm[irrig]

 N applied during growing season           323.0 kg[N applied]/ha
   Dry Matter Productivity                  57.9 kg[DM]/kg[N applied]
   Yield Productivity                       25.2 kg[yield]/kg[N applied]

 N uptake during growing season            315.2 kg[N uptake]/ha
   Dry Matter Productivity                  59.3 kg[DM]/kg[N uptake]
   Yield Productivity                       25.9 kg[yield]/kg[N uptake]

--------------------------------------------------------------------------------------------------------------

          WHEAT YIELD :     8154 kg/ha    [Dry weight] 

**************************************************************************************************************
  

*DSSAT Cropping System Model Ver. 4.8.2.000 -release  APR 06, 2025 18:58:49

*RUN   4        : WW23_G-4                  CSCER048 CIOB2301    4
 MODEL          : CSCER048 - Wheat
 EXPERIMENT     : CIOB2301 WH ROOTS ANATOMY
 DATA PATH      : C:\DSSAT48\Wheat\
 TREATMENT  4   : WW23_G-4                  CSCER048


 CROP           : Wheat            CULTIVAR : ENTRY 4          ECOTYPE :CAWH01
 STARTING DATE  : SEP  1 2022
 PLANTING DATE  : NOV 23 2022      PLANTS/m2 :   137.0    ROW SPACING :  20.cm
 WEATHER        : CIOB   2022
 SOIL           : CCENEB2301     TEXTURE : C     -   CIMMYT CENEB 710
 SOIL INIT COND : DEPTH:120cm EXTR. H2O: 82.8mm  NO3:484.0kg/ha  NH4:341.8kg/ha
 WATER BALANCE  : IRRIGATE ON REPORTED DATE(S)
 IRRIGATION     :      478 mm IN     8 APPLICATIONS
 NITROGEN BAL.  : SOIL-N & N-UPTAKE SIMULATION; NO N-FIXATION
 N-FERTILIZER   :      323 kg/ha IN     3 APPLICATIONS
 RESIDUE/MANURE : INITIAL :     0 kg/ha ;    2222 kg/ha IN     1 APPLICATIONS
 ENVIRONM. OPT. : DAYL=    0.00  SRAD=    0.00  TMAX=    0.00  TMIN=    0.00
                  RAIN=    0.00  CO2 =    0.00  DEW =    0.00  WIND=    0.00
 SIMULATION OPT : WATER   :Y  NITROGEN:Y  N-FIX:N  PHOSPH :N  PESTS  :N
                  PHOTO   :C  ET      :R  INFIL:S  HYDROL :R  SOM    :G
                  CO2 418ppm  NSWIT   :1  EVAP :R  SOIL   :2  STEMP  :D
 MANAGEMENT OPT : PLANTING:R  IRRIG   :R  FERT :R  RESIDUE:R  HARVEST:M
                  WEATHER :M  TILLAGE :Y

*SUMMARY OF SOIL AND GENETIC INPUT PARAMETERS

   SOIL LOWER UPPER   SAT  EXTR  INIT   ROOT   BULK     pH    NO3    NH4    ORG
  DEPTH LIMIT LIMIT    SW    SW    SW   DIST   DENS                          C
   cm   cm3/cm3    cm3/cm3    cm3/cm3         g/cm3         ugN/g  ugN/g     %
-------------------------------------------------------------------------------
  0-  5 0.143 0.204 0.268 0.061 0.172   1.00   1.35   8.50  29.00  29.00   1.08
  5- 15 0.143 0.204 0.268 0.061 0.172   1.00   1.35   8.50  29.00  29.00   1.08
 15- 30 0.143 0.204 0.268 0.061 0.172   1.00   1.35   8.50  29.00  29.00   1.08
 30- 45 0.166 0.234 0.274 0.068 0.225   0.41   1.58   8.50  27.00  16.00   0.46
 45- 60 0.166 0.234 0.274 0.068 0.225   0.41   1.58   8.50  27.00  16.00   0.46
 60- 90 0.155 0.227 0.276 0.072 0.207   0.22   1.50   8.00  53.00  33.00   0.39
 90-120 0.188 0.263 0.308 0.075 0.263   0.12   1.38   8.00   0.01   0.01   0.40

TOT-120  19.6  27.8  33.8   8.3  26.0  <--cm   -  kg/ha-->  484.0  341.8  99654
SOIL ALBEDO    : 0.13      EVAPORATION LIMIT : 6.00         MIN. FACTOR  : 1.00
RUNOFF CURVE # :61.00      DRAINAGE RATE     : 0.60         FERT. FACTOR : 1.00

 Wheat            CULTIVAR: 617502-ENTRY 4            ECOTYPE: CAWH01
   P1V   P1D    P5    G1    G2    G3 PHINT
  28.3  52.3 659.2  17.9  49.3  3.18  86.0


*SIMULATED CROP AND SOIL STATUS AT MAIN DEVELOPMENT STAGES
  
 RUN NO.      4   ROOTS ANATOMY                                               

 ...... DATE ......  GROWTH STAGE BIOMASS   LEAF       CROP N      STRESS
 YEARDOY DOM MON DAP ............. kg/ha AREA NUMBER  kg/ha   %   H2O    N
 2022327  23 Nov   0 7 Sowing         0  0.00   0.0     0   0.0  0.00  0.00
 2022328  24 Nov   1 8 Germinate      0  0.00   0.0     0   0.0  0.00  0.00
 2022330  26 Nov   3 9 Emergence      0  0.00   0.0     0   0.0  0.00  0.00
 2023028  28 Jan  66 1 Term Spklt  3769  4.22  13.2   148   3.9  0.10  0.04
 2023045  14 Feb  83 2 End Veg     6764  7.95  16.3   226   3.3  0.00  0.00
 2023056  25 Feb  94 3 End Ear Gr  8824  6.83  16.3   224   2.5  0.00  0.00
 2023069  10 Mar 107 4 Beg Gr Fil 12202  3.47  16.3   223   1.8  0.04  0.00
 2023103  13 Apr 141 5 End Gr Fil 18731  0.00  16.3   291   1.6  0.00  0.01
 2023103  13 Apr 141 6 Harvest    18731  0.00  16.3   291   1.6  0.00  0.00
  

*MAIN GROWTH AND DEVELOPMENT VARIABLES

@     VARIABLE                             SIMULATED     MEASURED
      --------                             ---------     --------
      Emergence (DAP)                            3            7
      Anthesis (DAP)                            97           97
      Maturity (DAP)                           141          141
      Product wt (kg dm/ha;no loss)           8360         7183
      Product unit weight (g dm)             0.049        0.049
      Product number (no/m2)                 16957        14585
      Product number (no/group)               21.3        -99.0
      Product harvest index (ratio)           0.45         0.46
      Maximum leaf area index                  8.0          5.5
      Final leaf number (one axis)            16.3        -99.0
      Final shoot number (#/m2)                795          -99
      Canopy (tops) wt (kg dm/ha)            18731        15767
      Vegetative wt (kg dm/ha)               10371         8584
      Root wt (kg dm/ha)                      1342          -99
      Assimilate wt (kg dm/ha)               21580          -99
      Senesced wt (kg dm/ha)                   594          -99
      Reserves wt (kg dm/ha)                  4182          -99
      N uptake (kg/ha)                       316.8        -99.0
      N senesced (kg/ha)                       8.2        -99.0
      Above-ground N (kg/ha)                 290.9        -99.0
      Root N (kg/ha)                          18.4        -99.0
      Vegetative N (kg/ha)                    46.5        -99.0
      Product N (kg/ha)                      244.4        153.2
      Product N harvest index (ratio)         0.84       -99.00
      Product N (%)                            2.9          2.1
      Vegetative N (%)                         0.4        -99.0
      Leaf+stem wt,anthesis (kg dm/ha)        9613          -99
      Leaf+stem N,anthesis (kg/ha)           223.2        -99.0
      Leaf N,anthesis (%)                      3.0        -99.0

*ENVIRONMENTAL AND STRESS FACTORS

 |-----Development Phase------|-------------Environment--------------|----------------Stress-----------------|
                              |--------Average-------|---Cumulative--|         (0=Min, 1=Max Stress)         |
                         Time  Temp  Temp Solar Photop         Evapo |----Water---|--Nitrogen--|--Phosphorus-|
                         Span   Max   Min   Rad  [day]   Rain  Trans  Photo         Photo         Photo
                         days    °C    °C MJ/m2     hr     mm     mm  synth Growth ' synth Growth  synth Growth
--------------------------------------------------------------------------------------------------------------
 Germinate  - Term Spklt   63  26.2   7.1  14.3  11.36   10.0  111.3  0.103  0.163  0.037  0.037 -99.00 -99.00
 Term Spklt - End Veg      17  25.5   5.7  15.7  11.77    0.1   52.5  0.000  0.010  0.000  0.000 -99.00 -99.00
 End Veg    - End Ear Gr   11  22.9   8.4  14.9  12.08   12.1   31.8  0.000  0.000  0.000  0.000 -99.00 -99.00
 End Ear Gr - Beg Gr Fil   13  26.6   6.1  19.8  12.38    0.1   49.6  0.038  0.082  0.000  0.000 -99.00 -99.00
 Beg Gr Fil - End Gr Fil   34  29.4   9.0  23.1  13.02   65.8  102.6  0.000  0.000  0.006  0.006 -99.00 -99.00
  
 Germinate  - End Gr Fil  138  26.7   7.4  17.2  11.97   88.1  347.8  0.051  0.083  0.018  0.018 -99.00 -99.00
--------------------------------------------------------------------------------------------------------------


*RESOURCE PRODUCTIVITY

 Growing season length: 138 days 

 Precipitation during growth season         88.1 mm[rain]
   Dry Matter Productivity                 21.26 kg[DM]/m3[rain]          =  212.6 kg[DM]/ha per mm[rain]
   Yield Productivity                       9.49 kg[grain yield]/m3[rain] =   94.9 kg[yield]/ha per mm[rain]

 Evapotranspiration during growth season   347.8 mm[ET]
   Dry Matter Productivity                  5.38 kg[DM]/m3[ET]            =   53.8 kg[DM]/ha per mm[ET]
   Yield Productivity                       2.40 kg[grain yield]/m3[ET]   =   24.0 kg[yield]/ha per mm[ET]

 Transpiration during growth season        290.0 mm[EP]
   Dry Matter Productivity                  6.46 kg[DM]/m3[EP]            =   64.6 kg[DM]/ha per mm[EP]
   Yield Productivity                       2.88 kg[grain yield]/m3[EP]   =   28.8 kg[yield]/ha per mm[EP]

 Irrigation during growing season          478.4 mm[irrig]
   Dry Matter Productivity                  3.92 kg[DM]/m3[irrig]         =   39.2 kg[DM]/ha per mm[irrig]
   Yield Productivity                       1.75 kg[grain yield]/m3[irrig]=   17.5 kg[yield]/ha per mm[irrig]

 N applied during growing season           323.0 kg[N applied]/ha
   Dry Matter Productivity                  58.0 kg[DM]/kg[N applied]
   Yield Productivity                       25.9 kg[yield]/kg[N applied]

 N uptake during growing season            316.8 kg[N uptake]/ha
   Dry Matter Productivity                  59.1 kg[DM]/kg[N uptake]
   Yield Productivity                       26.4 kg[yield]/kg[N uptake]

--------------------------------------------------------------------------------------------------------------

          WHEAT YIELD :     8360 kg/ha    [Dry weight] 

**************************************************************************************************************
  

*DSSAT Cropping System Model Ver. 4.8.2.000 -release  APR 06, 2025 18:58:49

*RUN   5        : WW23_G-5                  CSCER048 CIOB2301    5
 MODEL          : CSCER048 - Wheat
 EXPERIMENT     : CIOB2301 WH ROOTS ANATOMY
 DATA PATH      : C:\DSSAT48\Wheat\
 TREATMENT  5   : WW23_G-5                  CSCER048


 CROP           : Wheat            CULTIVAR : ENTRY 5          ECOTYPE :CAWH01
 STARTING DATE  : SEP  1 2022
 PLANTING DATE  : NOV 23 2022      PLANTS/m2 :   137.0    ROW SPACING :  20.cm
 WEATHER        : CIOB   2022
 SOIL           : CCENEB2301     TEXTURE : C     -   CIMMYT CENEB 710
 SOIL INIT COND : DEPTH:120cm EXTR. H2O: 82.8mm  NO3:484.0kg/ha  NH4:341.8kg/ha
 WATER BALANCE  : IRRIGATE ON REPORTED DATE(S)
 IRRIGATION     :      478 mm IN     8 APPLICATIONS
 NITROGEN BAL.  : SOIL-N & N-UPTAKE SIMULATION; NO N-FIXATION
 N-FERTILIZER   :      323 kg/ha IN     3 APPLICATIONS
 RESIDUE/MANURE : INITIAL :     0 kg/ha ;    2222 kg/ha IN     1 APPLICATIONS
 ENVIRONM. OPT. : DAYL=    0.00  SRAD=    0.00  TMAX=    0.00  TMIN=    0.00
                  RAIN=    0.00  CO2 =    0.00  DEW =    0.00  WIND=    0.00
 SIMULATION OPT : WATER   :Y  NITROGEN:Y  N-FIX:N  PHOSPH :N  PESTS  :N
                  PHOTO   :C  ET      :R  INFIL:S  HYDROL :R  SOM    :G
                  CO2 418ppm  NSWIT   :1  EVAP :R  SOIL   :2  STEMP  :D
 MANAGEMENT OPT : PLANTING:R  IRRIG   :R  FERT :R  RESIDUE:R  HARVEST:M
                  WEATHER :M  TILLAGE :Y

*SUMMARY OF SOIL AND GENETIC INPUT PARAMETERS

   SOIL LOWER UPPER   SAT  EXTR  INIT   ROOT   BULK     pH    NO3    NH4    ORG
  DEPTH LIMIT LIMIT    SW    SW    SW   DIST   DENS                          C
   cm   cm3/cm3    cm3/cm3    cm3/cm3         g/cm3         ugN/g  ugN/g     %
-------------------------------------------------------------------------------
  0-  5 0.143 0.204 0.268 0.061 0.172   1.00   1.35   8.50  29.00  29.00   1.08
  5- 15 0.143 0.204 0.268 0.061 0.172   1.00   1.35   8.50  29.00  29.00   1.08
 15- 30 0.143 0.204 0.268 0.061 0.172   1.00   1.35   8.50  29.00  29.00   1.08
 30- 45 0.166 0.234 0.274 0.068 0.225   0.41   1.58   8.50  27.00  16.00   0.46
 45- 60 0.166 0.234 0.274 0.068 0.225   0.41   1.58   8.50  27.00  16.00   0.46
 60- 90 0.155 0.227 0.276 0.072 0.207   0.22   1.50   8.00  53.00  33.00   0.39
 90-120 0.188 0.263 0.308 0.075 0.263   0.12   1.38   8.00   0.01   0.01   0.40

TOT-120  19.6  27.8  33.8   8.3  26.0  <--cm   -  kg/ha-->  484.0  341.8  99654
SOIL ALBEDO    : 0.13      EVAPORATION LIMIT : 6.00         MIN. FACTOR  : 1.00
RUNOFF CURVE # :61.00      DRAINAGE RATE     : 0.60         FERT. FACTOR : 1.00

 Wheat            CULTIVAR: 617636-ENTRY 5            ECOTYPE: CAWH01
   P1V   P1D    P5    G1    G2    G3 PHINT
  43.0  55.5 679.4  16.2  49.0  2.58  86.0


*SIMULATED CROP AND SOIL STATUS AT MAIN DEVELOPMENT STAGES
  
 RUN NO.      5   ROOTS ANATOMY                                               

 ...... DATE ......  GROWTH STAGE BIOMASS   LEAF       CROP N      STRESS
 YEARDOY DOM MON DAP ............. kg/ha AREA NUMBER  kg/ha   %   H2O    N
 2022327  23 Nov   0 7 Sowing         0  0.00   0.0     0   0.0  0.00  0.00
 2022328  24 Nov   1 8 Germinate      0  0.00   0.0     0   0.0  0.00  0.00
 2022330  26 Nov   3 9 Emergence      0  0.00   0.0     0   0.0  0.00  0.00
 2023031  31 Jan  69 1 Term Spklt  4156  4.28  13.7   151   3.6  0.09  0.04
 2023048  17 Feb  86 2 End Veg     7154  8.27  16.8   238   3.3  0.00  0.00
 2023059  28 Feb  97 3 End Ear Gr  9351  7.07  16.8   236   2.5  0.00  0.00
 2023071  12 Mar 109 4 Beg Gr Fil 12539  3.72  16.8   235   1.9  0.04  0.00
 2023106  16 Apr 144 5 End Gr Fil 19188  0.00  16.8   267   1.4  0.07  0.07
 2023106  16 Apr 144 6 Harvest    19188  0.00  16.8   267   1.4  0.00  0.00
  

*MAIN GROWTH AND DEVELOPMENT VARIABLES

@     VARIABLE                             SIMULATED     MEASURED
      --------                             ---------     --------
      Emergence (DAP)                            3            7
      Anthesis (DAP)                           100          100
      Maturity (DAP)                           144          144
      Product wt (kg dm/ha;no loss)           7992         7020
      Product unit weight (g dm)             0.049        0.049
      Product number (no/m2)                 16310        14222
      Product number (no/group)               17.5        -99.0
      Product harvest index (ratio)           0.42         0.34
      Maximum leaf area index                  8.3          5.3
      Final leaf number (one axis)            16.8        -99.0
      Final shoot number (#/m2)                932          -99
      Canopy (tops) wt (kg dm/ha)            19188        20705
      Vegetative wt (kg dm/ha)               11196        13685
      Root wt (kg dm/ha)                      1404          -99
      Assimilate wt (kg dm/ha)               22207          -99
      Senesced wt (kg dm/ha)                   656          -99
      Reserves wt (kg dm/ha)                  4704          -99
      N uptake (kg/ha)                       293.5        -99.0
      N senesced (kg/ha)                       9.1        -99.0
      Above-ground N (kg/ha)                 266.8        -99.0
      Root N (kg/ha)                          18.4        -99.0
      Vegetative N (kg/ha)                    48.7        -99.0
      Product N (kg/ha)                      218.1        148.5
      Product N harvest index (ratio)         0.82       -99.00
      Product N (%)                            2.7          2.1
      Vegetative N (%)                         0.4        -99.0
      Leaf+stem wt,anthesis (kg dm/ha)       10014          -99
      Leaf+stem N,anthesis (kg/ha)           235.2        -99.0
      Leaf N,anthesis (%)                      3.0        -99.0

*ENVIRONMENTAL AND STRESS FACTORS

 |-----Development Phase------|-------------Environment--------------|----------------Stress-----------------|
                              |--------Average-------|---Cumulative--|         (0=Min, 1=Max Stress)         |
                         Time  Temp  Temp Solar Photop         Evapo |----Water---|--Nitrogen--|--Phosphorus-|
                         Span   Max   Min   Rad  [day]   Rain  Trans  Photo         Photo         Photo
                         days    °C    °C MJ/m2     hr     mm     mm  synth Growth ' synth Growth  synth Growth
--------------------------------------------------------------------------------------------------------------
 Germinate  - Term Spklt   66  26.1   7.0  14.4  11.37   10.0  120.4  0.092  0.147  0.036  0.036 -99.00 -99.00
 Term Spklt - End Veg      17  25.1   5.8  15.7  11.84    3.6   52.3  0.000  0.009  0.001  0.001 -99.00 -99.00
 End Veg    - End Ear Gr   11  23.9   8.8  15.9  12.15    8.6   34.4  0.000  0.000  0.000  0.000 -99.00 -99.00
 End Ear Gr - Beg Gr Fil   12  27.7   6.6  20.1  12.45    0.1   47.7  0.035  0.084  0.000  0.000 -99.00 -99.00
 Beg Gr Fil - End Gr Fil   35  29.3   9.1  23.4  13.09   65.8  103.6  0.070  0.127  0.069  0.069 -99.00 -99.00
  
 Germinate  - End Gr Fil  141  26.7   7.5  17.4  12.01   88.1  358.4  0.063  0.108  0.034  0.034 -99.00 -99.00
--------------------------------------------------------------------------------------------------------------


*RESOURCE PRODUCTIVITY

 Growing season length: 141 days 

 Precipitation during growth season         88.1 mm[rain]
   Dry Matter Productivity                 21.78 kg[DM]/m3[rain]          =  217.8 kg[DM]/ha per mm[rain]
   Yield Productivity                       9.07 kg[grain yield]/m3[rain] =   90.7 kg[yield]/ha per mm[rain]

 Evapotranspiration during growth season   358.4 mm[ET]
   Dry Matter Productivity                  5.35 kg[DM]/m3[ET]            =   53.5 kg[DM]/ha per mm[ET]
   Yield Productivity                       2.23 kg[grain yield]/m3[ET]   =   22.3 kg[yield]/ha per mm[ET]

 Transpiration during growth season        300.8 mm[EP]
   Dry Matter Productivity                  6.38 kg[DM]/m3[EP]            =   63.8 kg[DM]/ha per mm[EP]
   Yield Productivity                       2.66 kg[grain yield]/m3[EP]   =   26.6 kg[yield]/ha per mm[EP]

 Irrigation during growing season          478.4 mm[irrig]
   Dry Matter Productivity                  4.01 kg[DM]/m3[irrig]         =   40.1 kg[DM]/ha per mm[irrig]
   Yield Productivity                       1.67 kg[grain yield]/m3[irrig]=   16.7 kg[yield]/ha per mm[irrig]

 N applied during growing season           323.0 kg[N applied]/ha
   Dry Matter Productivity                  59.4 kg[DM]/kg[N applied]
   Yield Productivity                       24.7 kg[yield]/kg[N applied]

 N uptake during growing season            293.5 kg[N uptake]/ha
   Dry Matter Productivity                  65.4 kg[DM]/kg[N uptake]
   Yield Productivity                       27.2 kg[yield]/kg[N uptake]

--------------------------------------------------------------------------------------------------------------

          WHEAT YIELD :     7992 kg/ha    [Dry weight] 

**************************************************************************************************************
  

*DSSAT Cropping System Model Ver. 4.8.2.000 -release  APR 06, 2025 18:58:49

*RUN   6        : WW23_G-6                  CSCER048 CIOB2301    6
 MODEL          : CSCER048 - Wheat
 EXPERIMENT     : CIOB2301 WH ROOTS ANATOMY
 DATA PATH      : C:\DSSAT48\Wheat\
 TREATMENT  6   : WW23_G-6                  CSCER048


 CROP           : Wheat            CULTIVAR : ENTRY 6          ECOTYPE :CAWH01
 STARTING DATE  : SEP  1 2022
 PLANTING DATE  : NOV 23 2022      PLANTS/m2 :   137.0    ROW SPACING :  20.cm
 WEATHER        : CIOB   2022
 SOIL           : CCENEB2301     TEXTURE : C     -   CIMMYT CENEB 710
 SOIL INIT COND : DEPTH:120cm EXTR. H2O: 82.8mm  NO3:484.0kg/ha  NH4:341.8kg/ha
 WATER BALANCE  : IRRIGATE ON REPORTED DATE(S)
 IRRIGATION     :      478 mm IN     8 APPLICATIONS
 NITROGEN BAL.  : SOIL-N & N-UPTAKE SIMULATION; NO N-FIXATION
 N-FERTILIZER   :      323 kg/ha IN     3 APPLICATIONS
 RESIDUE/MANURE : INITIAL :     0 kg/ha ;    2222 kg/ha IN     1 APPLICATIONS
 ENVIRONM. OPT. : DAYL=    0.00  SRAD=    0.00  TMAX=    0.00  TMIN=    0.00
                  RAIN=    0.00  CO2 =    0.00  DEW =    0.00  WIND=    0.00
 SIMULATION OPT : WATER   :Y  NITROGEN:Y  N-FIX:N  PHOSPH :N  PESTS  :N
                  PHOTO   :C  ET      :R  INFIL:S  HYDROL :R  SOM    :G
                  CO2 418ppm  NSWIT   :1  EVAP :R  SOIL   :2  STEMP  :D
 MANAGEMENT OPT : PLANTING:R  IRRIG   :R  FERT :R  RESIDUE:R  HARVEST:M
                  WEATHER :M  TILLAGE :Y

*SUMMARY OF SOIL AND GENETIC INPUT PARAMETERS

   SOIL LOWER UPPER   SAT  EXTR  INIT   ROOT   BULK     pH    NO3    NH4    ORG
  DEPTH LIMIT LIMIT    SW    SW    SW   DIST   DENS                          C
   cm   cm3/cm3    cm3/cm3    cm3/cm3         g/cm3         ugN/g  ugN/g     %
-------------------------------------------------------------------------------
  0-  5 0.143 0.204 0.268 0.061 0.172   1.00   1.35   8.50  29.00  29.00   1.08
  5- 15 0.143 0.204 0.268 0.061 0.172   1.00   1.35   8.50  29.00  29.00   1.08
 15- 30 0.143 0.204 0.268 0.061 0.172   1.00   1.35   8.50  29.00  29.00   1.08
 30- 45 0.166 0.234 0.274 0.068 0.225   0.41   1.58   8.50  27.00  16.00   0.46
 45- 60 0.166 0.234 0.274 0.068 0.225   0.41   1.58   8.50  27.00  16.00   0.46
 60- 90 0.155 0.227 0.276 0.072 0.207   0.22   1.50   8.00  53.00  33.00   0.39
 90-120 0.188 0.263 0.308 0.075 0.263   0.12   1.38   8.00   0.01   0.01   0.40

TOT-120  19.6  27.8  33.8   8.3  26.0  <--cm   -  kg/ha-->  484.0  341.8  99654
SOIL ALBEDO    : 0.13      EVAPORATION LIMIT : 6.00         MIN. FACTOR  : 1.00
RUNOFF CURVE # :61.00      DRAINAGE RATE     : 0.60         FERT. FACTOR : 1.00

 Wheat            CULTIVAR: 474812-ENTRY 6            ECOTYPE: CAWH01
   P1V   P1D    P5    G1    G2    G3 PHINT
   4.1  60.1 647.8  19.2  42.2  7.08  86.0


*SIMULATED CROP AND SOIL STATUS AT MAIN DEVELOPMENT STAGES
  
 RUN NO.      6   ROOTS ANATOMY                                               

 ...... DATE ......  GROWTH STAGE BIOMASS   LEAF       CROP N      STRESS
 YEARDOY DOM MON DAP ............. kg/ha AREA NUMBER  kg/ha   %   H2O    N
 2022327  23 Nov   0 7 Sowing         0  0.00   0.0     0   0.0  0.00  0.00
 2022328  24 Nov   1 8 Germinate      0  0.00   0.0     0   0.0  0.00  0.00
 2022330  26 Nov   3 9 Emergence      0  0.00   0.0     0   0.0  0.00  0.00
 2023031  31 Jan  69 1 Term Spklt  4152  4.28  13.7   152   3.7  0.09  0.04
 2023048  17 Feb  86 2 End Veg     7152  8.23  16.8   238   3.3  0.00  0.00
 2023059  28 Feb  97 3 End Ear Gr  9349  6.93  16.8   235   2.5  0.00  0.00
 2023071  12 Mar 109 4 Beg Gr Fil 12537  3.55  16.8   235   1.9  0.03  0.00
 2023105  15 Apr 143 5 End Gr Fil 18873  0.00  16.8   282   1.5  0.00  0.02
 2023105  15 Apr 143 6 Harvest    18873  0.00  16.8   282   1.5  0.00  0.00
  

*MAIN GROWTH AND DEVELOPMENT VARIABLES

@     VARIABLE                             SIMULATED     MEASURED
      --------                             ---------     --------
      Emergence (DAP)                            3            7
      Anthesis (DAP)                           100          100
      Maturity (DAP)                           143          143
      Product wt (kg dm/ha;no loss)           8156         6947
      Product unit weight (g dm)             0.042        0.042
      Product number (no/m2)                 19326        16489
      Product number (no/group)               33.7        -99.0
      Product harvest index (ratio)           0.43         0.39
      Maximum leaf area index                  8.2          5.7
      Final leaf number (one axis)            16.8        -99.0
      Final shoot number (#/m2)                574          -99
      Canopy (tops) wt (kg dm/ha)            18873        17928
      Vegetative wt (kg dm/ha)               10717        10981
      Root wt (kg dm/ha)                      1403          -99
      Assimilate wt (kg dm/ha)               21890          -99
      Senesced wt (kg dm/ha)                   656          -99
      Reserves wt (kg dm/ha)                  4228          -99
      N uptake (kg/ha)                       308.5        -99.0
      N senesced (kg/ha)                       9.1        -99.0
      Above-ground N (kg/ha)                 281.6        -99.0
      Root N (kg/ha)                          18.7        -99.0
      Vegetative N (kg/ha)                    48.8        -99.0
      Product N (kg/ha)                      232.8        133.9
      Product N harvest index (ratio)         0.83       -99.00
      Product N (%)                            2.9          1.9
      Vegetative N (%)                         0.5        -99.0
      Leaf+stem wt,anthesis (kg dm/ha)       10014          -99
      Leaf+stem N,anthesis (kg/ha)           234.9        -99.0
      Leaf N,anthesis (%)                      3.0        -99.0

*ENVIRONMENTAL AND STRESS FACTORS

 |-----Development Phase------|-------------Environment--------------|----------------Stress-----------------|
                              |--------Average-------|---Cumulative--|         (0=Min, 1=Max Stress)         |
                         Time  Temp  Temp Solar Photop         Evapo |----Water---|--Nitrogen--|--Phosphorus-|
                         Span   Max   Min   Rad  [day]   Rain  Trans  Photo         Photo         Photo
                         days    °C    °C MJ/m2     hr     mm     mm  synth Growth ' synth Growth  synth Growth
--------------------------------------------------------------------------------------------------------------
 Germinate  - Term Spklt   66  26.1   7.0  14.4  11.37   10.0  120.4  0.092  0.146  0.036  0.036 -99.00 -99.00
 Term Spklt - End Veg      17  25.1   5.8  15.7  11.84    3.6   52.3  0.000  0.009  0.001  0.001 -99.00 -99.00
 End Veg    - End Ear Gr   11  23.9   8.8  15.9  12.15    8.6   34.4  0.000  0.000  0.000  0.000 -99.00 -99.00
 End Ear Gr - Beg Gr Fil   12  27.7   6.6  20.1  12.45    0.1   47.8  0.035  0.083  0.000  0.000 -99.00 -99.00
 Beg Gr Fil - End Gr Fil   34  29.2   9.0  23.3  13.08   65.8   97.9  0.000  0.014  0.017  0.017 -99.00 -99.00
  
 Germinate  - End Gr Fil  140  26.7   7.5  17.3  12.00   88.1  352.8  0.046  0.081  0.021  0.021 -99.00 -99.00
--------------------------------------------------------------------------------------------------------------


*RESOURCE PRODUCTIVITY

 Growing season length: 140 days 

 Precipitation during growth season         88.1 mm[rain]
   Dry Matter Productivity                 21.42 kg[DM]/m3[rain]          =  214.2 kg[DM]/ha per mm[rain]
   Yield Productivity                       9.26 kg[grain yield]/m3[rain] =   92.6 kg[yield]/ha per mm[rain]

 Evapotranspiration during growth season   352.8 mm[ET]
   Dry Matter Productivity                  5.35 kg[DM]/m3[ET]            =   53.5 kg[DM]/ha per mm[ET]
   Yield Productivity                       2.31 kg[grain yield]/m3[ET]   =   23.1 kg[yield]/ha per mm[ET]

 Transpiration during growth season        294.5 mm[EP]
   Dry Matter Productivity                  6.41 kg[DM]/m3[EP]            =   64.1 kg[DM]/ha per mm[EP]
   Yield Productivity                       2.77 kg[grain yield]/m3[EP]   =   27.7 kg[yield]/ha per mm[EP]

 Irrigation during growing season          478.4 mm[irrig]
   Dry Matter Productivity                  3.94 kg[DM]/m3[irrig]         =   39.4 kg[DM]/ha per mm[irrig]
   Yield Productivity                       1.70 kg[grain yield]/m3[irrig]=   17.0 kg[yield]/ha per mm[irrig]

 N applied during growing season           323.0 kg[N applied]/ha
   Dry Matter Productivity                  58.4 kg[DM]/kg[N applied]
   Yield Productivity                       25.2 kg[yield]/kg[N applied]

 N uptake during growing season            308.5 kg[N uptake]/ha
   Dry Matter Productivity                  61.2 kg[DM]/kg[N uptake]
   Yield Productivity                       26.4 kg[yield]/kg[N uptake]

--------------------------------------------------------------------------------------------------------------

          WHEAT YIELD :     8156 kg/ha    [Dry weight] 

**************************************************************************************************************
  

*DSSAT Cropping System Model Ver. 4.8.2.000 -release  APR 06, 2025 18:58:49

*RUN   7        : WW23_G-7                  CSCER048 CIOB2301    7
 MODEL          : CSCER048 - Wheat
 EXPERIMENT     : CIOB2301 WH ROOTS ANATOMY
 DATA PATH      : C:\DSSAT48\Wheat\
 TREATMENT  7   : WW23_G-7                  CSCER048


 CROP           : Wheat            CULTIVAR : ENTRY 7          ECOTYPE :CAWH01
 STARTING DATE  : SEP  1 2022
 PLANTING DATE  : NOV 23 2022      PLANTS/m2 :   137.0    ROW SPACING :  20.cm
 WEATHER        : CIOB   2022
 SOIL           : CCENEB2301     TEXTURE : C     -   CIMMYT CENEB 710
 SOIL INIT COND : DEPTH:120cm EXTR. H2O: 82.8mm  NO3:484.0kg/ha  NH4:341.8kg/ha
 WATER BALANCE  : IRRIGATE ON REPORTED DATE(S)
 IRRIGATION     :      478 mm IN     8 APPLICATIONS
 NITROGEN BAL.  : SOIL-N & N-UPTAKE SIMULATION; NO N-FIXATION
 N-FERTILIZER   :      323 kg/ha IN     3 APPLICATIONS
 RESIDUE/MANURE : INITIAL :     0 kg/ha ;    2222 kg/ha IN     1 APPLICATIONS
 ENVIRONM. OPT. : DAYL=    0.00  SRAD=    0.00  TMAX=    0.00  TMIN=    0.00
                  RAIN=    0.00  CO2 =    0.00  DEW =    0.00  WIND=    0.00
 SIMULATION OPT : WATER   :Y  NITROGEN:Y  N-FIX:N  PHOSPH :N  PESTS  :N
                  PHOTO   :C  ET      :R  INFIL:S  HYDROL :R  SOM    :G
                  CO2 418ppm  NSWIT   :1  EVAP :R  SOIL   :2  STEMP  :D
 MANAGEMENT OPT : PLANTING:R  IRRIG   :R  FERT :R  RESIDUE:R  HARVEST:M
                  WEATHER :M  TILLAGE :Y

*SUMMARY OF SOIL AND GENETIC INPUT PARAMETERS

   SOIL LOWER UPPER   SAT  EXTR  INIT   ROOT   BULK     pH    NO3    NH4    ORG
  DEPTH LIMIT LIMIT    SW    SW    SW   DIST   DENS                          C
   cm   cm3/cm3    cm3/cm3    cm3/cm3         g/cm3         ugN/g  ugN/g     %
-------------------------------------------------------------------------------
  0-  5 0.143 0.204 0.268 0.061 0.172   1.00   1.35   8.50  29.00  29.00   1.08
  5- 15 0.143 0.204 0.268 0.061 0.172   1.00   1.35   8.50  29.00  29.00   1.08
 15- 30 0.143 0.204 0.268 0.061 0.172   1.00   1.35   8.50  29.00  29.00   1.08
 30- 45 0.166 0.234 0.274 0.068 0.225   0.41   1.58   8.50  27.00  16.00   0.46
 45- 60 0.166 0.234 0.274 0.068 0.225   0.41   1.58   8.50  27.00  16.00   0.46
 60- 90 0.155 0.227 0.276 0.072 0.207   0.22   1.50   8.00  53.00  33.00   0.39
 90-120 0.188 0.263 0.308 0.075 0.263   0.12   1.38   8.00   0.01   0.01   0.40

TOT-120  19.6  27.8  33.8   8.3  26.0  <--cm   -  kg/ha-->  484.0  341.8  99654
SOIL ALBEDO    : 0.13      EVAPORATION LIMIT : 6.00         MIN. FACTOR  : 1.00
RUNOFF CURVE # :61.00      DRAINAGE RATE     : 0.60         FERT. FACTOR : 1.00

 Wheat            CULTIVAR: 748117-ENTRY 7            ECOTYPE: CAWH01
   P1V   P1D    P5    G1    G2    G3 PHINT
  29.5  56.8 626.9  18.9  40.6  0.51  86.0


*SIMULATED CROP AND SOIL STATUS AT MAIN DEVELOPMENT STAGES
  
 RUN NO.      7   ROOTS ANATOMY                                               

 ...... DATE ......  GROWTH STAGE BIOMASS   LEAF       CROP N      STRESS
 YEARDOY DOM MON DAP ............. kg/ha AREA NUMBER  kg/ha   %   H2O    N
 2022327  23 Nov   0 7 Sowing         0  0.00   0.0     0   0.0  0.00  0.00
 2022328  24 Nov   1 8 Germinate      0  0.00   0.0     0   0.0  0.00  0.00
 2022330  26 Nov   3 9 Emergence      0  0.00   0.0     0   0.0  0.00  0.00
 2023032   1 Feb  70 1 Term Spklt  4264  4.49  13.9   159   3.7  0.09  0.04
 2023049  18 Feb  87 2 End Veg     7255  8.55  17.0   244   3.4  0.00  0.00
 2023060   1 Mar  98 3 End Ear Gr  9376  7.67  17.0   241   2.6  0.00  0.00
 2023071  12 Mar 109 4 Beg Gr Fil 12484  4.57  17.0   240   1.9  0.04  0.00
 2023104  14 Apr 142 5 End Gr Fil 19220  0.00  17.0   267   1.4  0.14  0.09
 2023104  14 Apr 142 6 Harvest    19220  0.00  17.0   267   1.4  0.00  0.87
  

*MAIN GROWTH AND DEVELOPMENT VARIABLES

@     VARIABLE                             SIMULATED     MEASURED
      --------                             ---------     --------
      Emergence (DAP)                            3            7
      Anthesis (DAP)                           101          101
      Maturity (DAP)                           142          142
      Product wt (kg dm/ha;no loss)           7844         6650
      Product unit weight (g dm)             0.041        0.041
      Product number (no/m2)                 19320        16031
      Product number (no/group)                7.8        -99.0
      Product harvest index (ratio)           0.41         0.41
      Maximum leaf area index                  8.5          6.7
      Final leaf number (one axis)            17.0        -99.0
      Final shoot number (#/m2)               2477          -99
      Canopy (tops) wt (kg dm/ha)            19220        16066
      Vegetative wt (kg dm/ha)               11376         9416
      Root wt (kg dm/ha)                      1435          -99
      Assimilate wt (kg dm/ha)               22321          -99
      Senesced wt (kg dm/ha)                   688          -99
      Reserves wt (kg dm/ha)                  4813          -99
      N uptake (kg/ha)                       294.6        -99.0
      N senesced (kg/ha)                       9.6        -99.0
      Above-ground N (kg/ha)                 266.7        -99.0
      Root N (kg/ha)                          19.1        -99.0
      Vegetative N (kg/ha)                    49.5        -99.0
      Product N (kg/ha)                      217.2        123.9
      Product N harvest index (ratio)         0.81       -99.00
      Product N (%)                            2.8          1.9
      Vegetative N (%)                         0.4        -99.0
      Leaf+stem wt,anthesis (kg dm/ha)       10247          -99
      Leaf+stem N,anthesis (kg/ha)           240.4        -99.0
      Leaf N,anthesis (%)                      3.0        -99.0

*ENVIRONMENTAL AND STRESS FACTORS

 |-----Development Phase------|-------------Environment--------------|----------------Stress-----------------|
                              |--------Average-------|---Cumulative--|         (0=Min, 1=Max Stress)         |
                         Time  Temp  Temp Solar Photop         Evapo |----Water---|--Nitrogen--|--Phosphorus-|
                         Span   Max   Min   Rad  [day]   Rain  Trans  Photo         Photo         Photo
                         days    °C    °C MJ/m2     hr     mm     mm  synth Growth ' synth Growth  synth Growth
--------------------------------------------------------------------------------------------------------------
 Germinate  - Term Spklt   67  26.0   7.0  14.4  11.38   10.0  122.6  0.090  0.144  0.035  0.035 -99.00 -99.00
 Term Spklt - End Veg      17  25.3   6.1  15.7  11.86   11.8   52.5  0.000  0.009  0.001  0.001 -99.00 -99.00
 End Veg    - End Ear Gr   11  23.5   8.4  15.3  12.18    0.4   33.1  0.000  0.000  0.000  0.000 -99.00 -99.00
 End Ear Gr - Beg Gr Fil   11  28.5   6.6  21.4  12.46    0.1   46.7  0.036  0.089  0.000  0.000 -99.00 -99.00
 Beg Gr Fil - End Gr Fil   33  29.2   9.0  23.2  13.07   65.8  105.1  0.141  0.197  0.092  0.092 -99.00 -99.00
  
 Germinate  - End Gr Fil  139  26.7   7.4  17.3  11.99   88.1  360.1  0.080  0.124  0.039  0.039 -99.00 -99.00
--------------------------------------------------------------------------------------------------------------


*RESOURCE PRODUCTIVITY

 Growing season length: 139 days 

 Precipitation during growth season         88.1 mm[rain]
   Dry Matter Productivity                 21.82 kg[DM]/m3[rain]          =  218.2 kg[DM]/ha per mm[rain]
   Yield Productivity                       8.90 kg[grain yield]/m3[rain] =   89.0 kg[yield]/ha per mm[rain]

 Evapotranspiration during growth season   360.1 mm[ET]
   Dry Matter Productivity                  5.34 kg[DM]/m3[ET]            =   53.4 kg[DM]/ha per mm[ET]
   Yield Productivity                       2.18 kg[grain yield]/m3[ET]   =   21.8 kg[yield]/ha per mm[ET]

 Transpiration during growth season        304.4 mm[EP]
   Dry Matter Productivity                  6.31 kg[DM]/m3[EP]            =   63.1 kg[DM]/ha per mm[EP]
   Yield Productivity                       2.58 kg[grain yield]/m3[EP]   =   25.8 kg[yield]/ha per mm[EP]

 Irrigation during growing season          478.4 mm[irrig]
   Dry Matter Productivity                  4.02 kg[DM]/m3[irrig]         =   40.2 kg[DM]/ha per mm[irrig]
   Yield Productivity                       1.64 kg[grain yield]/m3[irrig]=   16.4 kg[yield]/ha per mm[irrig]

 N applied during growing season           323.0 kg[N applied]/ha
   Dry Matter Productivity                  59.5 kg[DM]/kg[N applied]
   Yield Productivity                       24.3 kg[yield]/kg[N applied]

 N uptake during growing season            294.6 kg[N uptake]/ha
   Dry Matter Productivity                  65.2 kg[DM]/kg[N uptake]
   Yield Productivity                       26.6 kg[yield]/kg[N uptake]

--------------------------------------------------------------------------------------------------------------

          WHEAT YIELD :     7844 kg/ha    [Dry weight] 

**************************************************************************************************************
  

*DSSAT Cropping System Model Ver. 4.8.2.000 -release  APR 06, 2025 18:58:49

*RUN   8        : WW23_G-8                  CSCER048 CIOB2301    8
 MODEL          : CSCER048 - Wheat
 EXPERIMENT     : CIOB2301 WH ROOTS ANATOMY
 DATA PATH      : C:\DSSAT48\Wheat\
 TREATMENT  8   : WW23_G-8                  CSCER048


 CROP           : Wheat            CULTIVAR : ENTRY 8          ECOTYPE :CAWH01
 STARTING DATE  : SEP  1 2022
 PLANTING DATE  : NOV 23 2022      PLANTS/m2 :   137.0    ROW SPACING :  20.cm
 WEATHER        : CIOB   2022
 SOIL           : CCENEB2301     TEXTURE : C     -   CIMMYT CENEB 710
 SOIL INIT COND : DEPTH:120cm EXTR. H2O: 82.8mm  NO3:484.0kg/ha  NH4:341.8kg/ha
 WATER BALANCE  : IRRIGATE ON REPORTED DATE(S)
 IRRIGATION     :      478 mm IN     8 APPLICATIONS
 NITROGEN BAL.  : SOIL-N & N-UPTAKE SIMULATION; NO N-FIXATION
 N-FERTILIZER   :      323 kg/ha IN     3 APPLICATIONS
 RESIDUE/MANURE : INITIAL :     0 kg/ha ;    2222 kg/ha IN     1 APPLICATIONS
 ENVIRONM. OPT. : DAYL=    0.00  SRAD=    0.00  TMAX=    0.00  TMIN=    0.00
                  RAIN=    0.00  CO2 =    0.00  DEW =    0.00  WIND=    0.00
 SIMULATION OPT : WATER   :Y  NITROGEN:Y  N-FIX:N  PHOSPH :N  PESTS  :N
                  PHOTO   :C  ET      :R  INFIL:S  HYDROL :R  SOM    :G
                  CO2 418ppm  NSWIT   :1  EVAP :R  SOIL   :2  STEMP  :D
 MANAGEMENT OPT : PLANTING:R  IRRIG   :R  FERT :R  RESIDUE:R  HARVEST:M
                  WEATHER :M  TILLAGE :Y

*SUMMARY OF SOIL AND GENETIC INPUT PARAMETERS

   SOIL LOWER UPPER   SAT  EXTR  INIT   ROOT   BULK     pH    NO3    NH4    ORG
  DEPTH LIMIT LIMIT    SW    SW    SW   DIST   DENS                          C
   cm   cm3/cm3    cm3/cm3    cm3/cm3         g/cm3         ugN/g  ugN/g     %
-------------------------------------------------------------------------------
  0-  5 0.143 0.204 0.268 0.061 0.172   1.00   1.35   8.50  29.00  29.00   1.08
  5- 15 0.143 0.204 0.268 0.061 0.172   1.00   1.35   8.50  29.00  29.00   1.08
 15- 30 0.143 0.204 0.268 0.061 0.172   1.00   1.35   8.50  29.00  29.00   1.08
 30- 45 0.166 0.234 0.274 0.068 0.225   0.41   1.58   8.50  27.00  16.00   0.46
 45- 60 0.166 0.234 0.274 0.068 0.225   0.41   1.58   8.50  27.00  16.00   0.46
 60- 90 0.155 0.227 0.276 0.072 0.207   0.22   1.50   8.00  53.00  33.00   0.39
 90-120 0.188 0.263 0.308 0.075 0.263   0.12   1.38   8.00   0.01   0.01   0.40

TOT-120  19.6  27.8  33.8   8.3  26.0  <--cm   -  kg/ha-->  484.0  341.8  99654
SOIL ALBEDO    : 0.13      EVAPORATION LIMIT : 6.00         MIN. FACTOR  : 1.00
RUNOFF CURVE # :61.00      DRAINAGE RATE     : 0.60         FERT. FACTOR : 1.00

 Wheat            CULTIVAR: 748118-ENTRY 8            ECOTYPE: CAWH01
   P1V   P1D    P5    G1    G2    G3 PHINT
   3.9  66.5 650.6  17.4  41.4  4.32  86.0


*SIMULATED CROP AND SOIL STATUS AT MAIN DEVELOPMENT STAGES
  
 RUN NO.      8   ROOTS ANATOMY                                               

 ...... DATE ......  GROWTH STAGE BIOMASS   LEAF       CROP N      STRESS
 YEARDOY DOM MON DAP ............. kg/ha AREA NUMBER  kg/ha   %   H2O    N
 2022327  23 Nov   0 7 Sowing         0  0.00   0.0     0   0.0  0.00  0.00
 2022328  24 Nov   1 8 Germinate      0  0.00   0.0     0   0.0  0.00  0.00
 2022330  26 Nov   3 9 Emergence      0  0.00   0.0     0   0.0  0.00  0.00
 2023035   4 Feb  73 1 Term Spklt  4631  4.45  14.4   160   3.5  0.08  0.03
 2023052  21 Feb  90 2 End Veg     7451  8.49  17.6   250   3.4  0.00  0.00
 2023063   4 Mar 101 3 End Ear Gr  9946  7.29  17.6   247   2.5  0.00  0.00
 2023074  15 Mar 112 4 Beg Gr Fil 13080  3.69  17.6   246   1.9  0.03  0.00
 2023108  18 Apr 146 5 End Gr Fil 19109  0.00  17.6   262   1.4  0.10  0.01
 2023108  18 Apr 146 6 Harvest    19109  0.00  17.6   262   1.4  0.00  0.00
  

*MAIN GROWTH AND DEVELOPMENT VARIABLES

@     VARIABLE                             SIMULATED     MEASURED
      --------                             ---------     --------
      Emergence (DAP)                            3            7
      Anthesis (DAP)                           104          104
      Maturity (DAP)                           146          146
      Product wt (kg dm/ha;no loss)           7529         6393
      Product unit weight (g dm)             0.041        0.041
      Product number (no/m2)                 18185        15446
      Product number (no/group)               24.8        -99.0
      Product harvest index (ratio)           0.39         0.31
      Maximum leaf area index                  8.5          5.7
      Final leaf number (one axis)            17.6        -99.0
      Final shoot number (#/m2)                734          -99
      Canopy (tops) wt (kg dm/ha)            19109        20909
      Vegetative wt (kg dm/ha)               11580        14516
      Root wt (kg dm/ha)                      1502          -99
      Assimilate wt (kg dm/ha)               22414          -99
      Senesced wt (kg dm/ha)                   774          -99
      Reserves wt (kg dm/ha)                  4922          -99
      N uptake (kg/ha)                       292.3        -99.0
      N senesced (kg/ha)                      10.8        -99.0
      Above-ground N (kg/ha)                 261.6        -99.0
      Root N (kg/ha)                          20.6        -99.0
      Vegetative N (kg/ha)                    50.7        -99.0
      Product N (kg/ha)                      211.0        141.9
      Product N harvest index (ratio)         0.81       -99.00
      Product N (%)                            2.8          2.2
      Vegetative N (%)                         0.4        -99.0
      Leaf+stem wt,anthesis (kg dm/ha)       10665          -99
      Leaf+stem N,anthesis (kg/ha)           246.4        -99.0
      Leaf N,anthesis (%)                      3.0        -99.0

*ENVIRONMENTAL AND STRESS FACTORS

 |-----Development Phase------|-------------Environment--------------|----------------Stress-----------------|
                              |--------Average-------|---Cumulative--|         (0=Min, 1=Max Stress)         |
                         Time  Temp  Temp Solar Photop         Evapo |----Water---|--Nitrogen--|--Phosphorus-|
                         Span   Max   Min   Rad  [day]   Rain  Trans  Photo         Photo         Photo
                         days    °C    °C MJ/m2     hr     mm     mm  synth Growth ' synth Growth  synth Growth
--------------------------------------------------------------------------------------------------------------
 Germinate  - Term Spklt   70  26.1   6.9  14.5  11.39   10.1  132.7  0.081  0.133  0.035  0.035 -99.00 -99.00
 Term Spklt - End Veg      17  24.6   7.2  14.9  11.92   12.1   49.7  0.000  0.000  0.000  0.000 -99.00 -99.00
 End Veg    - End Ear Gr   11  23.7   6.5  18.0  12.25    0.1   38.4  0.000  0.000  0.000  0.000 -99.00 -99.00
 End Ear Gr - Beg Gr Fil   11  30.3   8.0  21.4  12.54    0.0   48.8  0.027  0.077  0.000  0.000 -99.00 -99.00
 Beg Gr Fil - End Gr Fil   34  29.2   9.1  23.6  13.16   65.8   91.2  0.103  0.158  0.005  0.005 -99.00 -99.00
  
 Germinate  - End Gr Fil  143  26.8   7.5  17.5  12.03   88.1  360.8  0.066  0.109  0.018  0.018 -99.00 -99.00
--------------------------------------------------------------------------------------------------------------


*RESOURCE PRODUCTIVITY

 Growing season length: 143 days 

 Precipitation during growth season         88.1 mm[rain]
   Dry Matter Productivity                 21.69 kg[DM]/m3[rain]          =  216.9 kg[DM]/ha per mm[rain]
   Yield Productivity                       8.55 kg[grain yield]/m3[rain] =   85.5 kg[yield]/ha per mm[rain]

 Evapotranspiration during growth season   360.8 mm[ET]
   Dry Matter Productivity                  5.30 kg[DM]/m3[ET]            =   53.0 kg[DM]/ha per mm[ET]
   Yield Productivity                       2.09 kg[grain yield]/m3[ET]   =   20.9 kg[yield]/ha per mm[ET]

 Transpiration during growth season        302.5 mm[EP]
   Dry Matter Productivity                  6.32 kg[DM]/m3[EP]            =   63.2 kg[DM]/ha per mm[EP]
   Yield Productivity                       2.49 kg[grain yield]/m3[EP]   =   24.9 kg[yield]/ha per mm[EP]

 Irrigation during growing season          478.4 mm[irrig]
   Dry Matter Productivity                  3.99 kg[DM]/m3[irrig]         =   39.9 kg[DM]/ha per mm[irrig]
   Yield Productivity                       1.57 kg[grain yield]/m3[irrig]=   15.7 kg[yield]/ha per mm[irrig]

 N applied during growing season           323.0 kg[N applied]/ha
   Dry Matter Productivity                  59.2 kg[DM]/kg[N applied]
   Yield Productivity                       23.3 kg[yield]/kg[N applied]

 N uptake during growing season            292.3 kg[N uptake]/ha
   Dry Matter Productivity                  65.4 kg[DM]/kg[N uptake]
   Yield Productivity                       25.8 kg[yield]/kg[N uptake]

--------------------------------------------------------------------------------------------------------------

          WHEAT YIELD :     7529 kg/ha    [Dry weight] 

**************************************************************************************************************
  

*DSSAT Cropping System Model Ver. 4.8.2.000 -release  APR 06, 2025 18:58:49

*RUN   9        : WW23_G-9                  CSCER048 CIOB2301    9
 MODEL          : CSCER048 - Wheat
 EXPERIMENT     : CIOB2301 WH ROOTS ANATOMY
 DATA PATH      : C:\DSSAT48\Wheat\
 TREATMENT  9   : WW23_G-9                  CSCER048


 CROP           : Wheat            CULTIVAR : ENTRY 9          ECOTYPE :CAWH01
 STARTING DATE  : SEP  1 2022
 PLANTING DATE  : NOV 23 2022      PLANTS/m2 :   137.0    ROW SPACING :  20.cm
 WEATHER        : CIOB   2022
 SOIL           : CCENEB2301     TEXTURE : C     -   CIMMYT CENEB 710
 SOIL INIT COND : DEPTH:120cm EXTR. H2O: 82.8mm  NO3:484.0kg/ha  NH4:341.8kg/ha
 WATER BALANCE  : IRRIGATE ON REPORTED DATE(S)
 IRRIGATION     :      478 mm IN     8 APPLICATIONS
 NITROGEN BAL.  : SOIL-N & N-UPTAKE SIMULATION; NO N-FIXATION
 N-FERTILIZER   :      323 kg/ha IN     3 APPLICATIONS
 RESIDUE/MANURE : INITIAL :     0 kg/ha ;    2222 kg/ha IN     1 APPLICATIONS
 ENVIRONM. OPT. : DAYL=    0.00  SRAD=    0.00  TMAX=    0.00  TMIN=    0.00
                  RAIN=    0.00  CO2 =    0.00  DEW =    0.00  WIND=    0.00
 SIMULATION OPT : WATER   :Y  NITROGEN:Y  N-FIX:N  PHOSPH :N  PESTS  :N
                  PHOTO   :C  ET      :R  INFIL:S  HYDROL :R  SOM    :G
                  CO2 418ppm  NSWIT   :1  EVAP :R  SOIL   :2  STEMP  :D
 MANAGEMENT OPT : PLANTING:R  IRRIG   :R  FERT :R  RESIDUE:R  HARVEST:M
                  WEATHER :M  TILLAGE :Y

*SUMMARY OF SOIL AND GENETIC INPUT PARAMETERS

   SOIL LOWER UPPER   SAT  EXTR  INIT   ROOT   BULK     pH    NO3    NH4    ORG
  DEPTH LIMIT LIMIT    SW    SW    SW   DIST   DENS                          C
   cm   cm3/cm3    cm3/cm3    cm3/cm3         g/cm3         ugN/g  ugN/g     %
-------------------------------------------------------------------------------
  0-  5 0.143 0.204 0.268 0.061 0.172   1.00   1.35   8.50  29.00  29.00   1.08
  5- 15 0.143 0.204 0.268 0.061 0.172   1.00   1.35   8.50  29.00  29.00   1.08
 15- 30 0.143 0.204 0.268 0.061 0.172   1.00   1.35   8.50  29.00  29.00   1.08
 30- 45 0.166 0.234 0.274 0.068 0.225   0.41   1.58   8.50  27.00  16.00   0.46
 45- 60 0.166 0.234 0.274 0.068 0.225   0.41   1.58   8.50  27.00  16.00   0.46
 60- 90 0.155 0.227 0.276 0.072 0.207   0.22   1.50   8.00  53.00  33.00   0.39
 90-120 0.188 0.263 0.308 0.075 0.263   0.12   1.38   8.00   0.01   0.01   0.40

TOT-120  19.6  27.8  33.8   8.3  26.0  <--cm   -  kg/ha-->  484.0  341.8  99654
SOIL ALBEDO    : 0.13      EVAPORATION LIMIT : 6.00         MIN. FACTOR  : 1.00
RUNOFF CURVE # :61.00      DRAINAGE RATE     : 0.60         FERT. FACTOR : 1.00

 Wheat            CULTIVAR: 474804-ENTRY 9            ECOTYPE: CAWH01
   P1V   P1D    P5    G1    G2    G3 PHINT
  48.6  56.8 691.3  17.3  43.1  4.43  86.0


*SIMULATED CROP AND SOIL STATUS AT MAIN DEVELOPMENT STAGES
  
 RUN NO.      9   ROOTS ANATOMY                                               

 ...... DATE ......  GROWTH STAGE BIOMASS   LEAF       CROP N      STRESS
 YEARDOY DOM MON DAP ............. kg/ha AREA NUMBER  kg/ha   %   H2O    N
 2022327  23 Nov   0 7 Sowing         0  0.00   0.0     0   0.0  0.00  0.00
 2022328  24 Nov   1 8 Germinate      0  0.00   0.0     0   0.0  0.00  0.00
 2022330  26 Nov   3 9 Emergence      0  0.00   0.0     0   0.0  0.00  0.00
 2023032   1 Feb  70 1 Term Spklt  4264  4.49  13.9   159   3.7  0.09  0.04
 2023049  18 Feb  87 2 End Veg     7253  8.38  17.0   244   3.4  0.00  0.00
 2023060   1 Mar  98 3 End Ear Gr  9372  7.12  17.0   242   2.6  0.00  0.00
 2023071  12 Mar 109 4 Beg Gr Fil 12471  3.98  17.0   241   1.9  0.04  0.00
 2023107  17 Apr 145 5 End Gr Fil 19248  0.00  17.0   260   1.3  0.07  0.03
 2023107  17 Apr 145 6 Harvest    19248  0.00  17.0   260   1.3  0.00  0.00
  

*MAIN GROWTH AND DEVELOPMENT VARIABLES

@     VARIABLE                             SIMULATED     MEASURED
      --------                             ---------     --------
      Emergence (DAP)                            3            7
      Anthesis (DAP)                           101          101
      Maturity (DAP)                           145          145
      Product wt (kg dm/ha;no loss)           7612         6560
      Product unit weight (g dm)             0.043        0.043
      Product number (no/m2)                 17662        15412
      Product number (no/group)               25.2        -99.0
      Product harvest index (ratio)           0.40         0.33
      Maximum leaf area index                  8.4          5.8
      Final leaf number (one axis)            17.0        -99.0
      Final shoot number (#/m2)                701          -99
      Canopy (tops) wt (kg dm/ha)            19248        20154
      Vegetative wt (kg dm/ha)               11636        13594
      Root wt (kg dm/ha)                      1433          -99
      Assimilate wt (kg dm/ha)               22355          -99
      Senesced wt (kg dm/ha)                   693          -99
      Reserves wt (kg dm/ha)                  5079          -99
      N uptake (kg/ha)                       287.9        -99.0
      N senesced (kg/ha)                       9.6        -99.0
      Above-ground N (kg/ha)                 259.7        -99.0
      Root N (kg/ha)                          19.4        -99.0
      Vegetative N (kg/ha)                    49.5        -99.0
      Product N (kg/ha)                      210.2        131.8
      Product N harvest index (ratio)         0.81       -99.00
      Product N (%)                            2.8          2.0
      Vegetative N (%)                         0.4        -99.0
[...]
   Dry Matter Productivity                  5.13 kg[DM]/m3[rain]          =   51.3 kg[DM]/ha per mm[rain]
   Yield Productivity                       2.01 kg[grain yield]/m3[rain] =   20.1 kg[yield]/ha per mm[rain]

 Evapotranspiration during growth season   109.3 mm[ET]
   Dry Matter Productivity                  4.13 kg[DM]/m3[ET]            =   41.3 kg[DM]/ha per mm[ET]
   Yield Productivity                       1.62 kg[grain yield]/m3[ET]   =   16.2 kg[yield]/ha per mm[ET]

 Transpiration during growth season         75.1 mm[EP]
   Dry Matter Productivity                  6.02 kg[DM]/m3[EP]            =   60.2 kg[DM]/ha per mm[EP]
   Yield Productivity                       2.36 kg[grain yield]/m3[EP]   =   23.6 kg[yield]/ha per mm[EP]

 Irrigation during growing season          120.0 mm[irrig]
   Dry Matter Productivity                  3.77 kg[DM]/m3[irrig]         =   37.7 kg[DM]/ha per mm[irrig]
   Yield Productivity                       1.48 kg[grain yield]/m3[irrig]=   14.8 kg[yield]/ha per mm[irrig]

 N applied during growing season           173.0 kg[N applied]/ha
   Dry Matter Productivity                  26.1 kg[DM]/kg[N applied]
   Yield Productivity                       10.3 kg[yield]/kg[N applied]

 N uptake during growing season             80.5 kg[N uptake]/ha
   Dry Matter Productivity                  56.1 kg[DM]/kg[N uptake]
   Yield Productivity                       22.0 kg[yield]/kg[N uptake]

--------------------------------------------------------------------------------------------------------------

          WHEAT YIELD :     1775 kg/ha    [Dry weight] 

**************************************************************************************************************
  

*DSSAT Cropping System Model Ver. 4.8.2.000 -release  APR 06, 2025 18:58:51

*RUN  55        : DR23_G-13                 CSCER048 CIOB2302   13
 MODEL          : CSCER048 - Wheat
 EXPERIMENT     : CIOB2302 WH ROOTS ANATOMY DROUGHT
 DATA PATH      : C:\DSSAT48\Wheat\
 TREATMENT 13   : DR23_G-13                 CSCER048


 CROP           : Wheat            CULTIVAR : ENTRY 13         ECOTYPE :CAWH01
 STARTING DATE  : SEP  1 2022
 PLANTING DATE  : DEC  3 2022      PLANTS/m2 :   150.0    ROW SPACING :  36.cm
 WEATHER        : CIOB   2022
 SOIL           : CCENEB2301     TEXTURE : C     -   CIMMYT CENEB 710
 SOIL INIT COND : DEPTH:120cm EXTR. H2O: 82.8mm  NO3:252.3kg/ha  NH4:205.5kg/ha
 WATER BALANCE  : IRRIGATE ON REPORTED DATE(S)
 IRRIGATION     :      120 mm IN     1 APPLICATIONS
 NITROGEN BAL.  : SOIL-N & N-UPTAKE SIMULATION; NO N-FIXATION
 N-FERTILIZER   :      173 kg/ha IN     2 APPLICATIONS
 RESIDUE/MANURE : INITIAL :     0 kg/ha ;    2222 kg/ha IN     1 APPLICATIONS
 ENVIRONM. OPT. : DAYL=    0.00  SRAD=    0.00  TMAX=    0.00  TMIN=    0.00
                  RAIN=    0.00  CO2 =    0.00  DEW =    0.00  WIND=    0.00
 SIMULATION OPT : WATER   :Y  NITROGEN:Y  N-FIX:N  PHOSPH :N  PESTS  :N
                  PHOTO   :C  ET      :R  INFIL:S  HYDROL :R  SOM    :G
                  CO2 418ppm  NSWIT   :1  EVAP :R  SOIL   :2  STEMP  :D
 MANAGEMENT OPT : PLANTING:R  IRRIG   :R  FERT :R  RESIDUE:R  HARVEST:M
                  WEATHER :M  TILLAGE :Y

*SUMMARY OF SOIL AND GENETIC INPUT PARAMETERS

   SOIL LOWER UPPER   SAT  EXTR  INIT   ROOT   BULK     pH    NO3    NH4    ORG
  DEPTH LIMIT LIMIT    SW    SW    SW   DIST   DENS                          C
   cm   cm3/cm3    cm3/cm3    cm3/cm3         g/cm3         ugN/g  ugN/g     %
-------------------------------------------------------------------------------
  0-  5 0.143 0.204 0.268 0.061 0.204   1.00   1.35   8.80  19.00  12.00   1.10
  5- 15 0.143 0.204 0.268 0.061 0.204   1.00   1.35   8.80  19.00  12.00   1.10
 15- 30 0.143 0.204 0.268 0.061 0.204   1.00   1.35   8.80  19.00  12.00   1.10
 30- 45 0.166 0.234 0.274 0.068 0.230   0.41   1.58   8.50  18.00  16.00   0.40
 45- 60 0.166 0.234 0.274 0.068 0.230   0.41   1.58   8.50  18.00  16.00   0.40
 60- 90 0.155 0.227 0.276 0.072 0.230   0.22   1.50   8.50  20.00  18.00   0.40
 90-120 0.188 0.263 0.308 0.075 0.263   0.12   1.38   8.00   0.01   0.01   0.40

TOT-120  19.6  27.8  33.8   8.3  27.8  <--cm   -  kg/ha-->  252.3  205.5  98070
SOIL ALBEDO    : 0.13      EVAPORATION LIMIT : 6.00         MIN. FACTOR  : 1.00
RUNOFF CURVE # :61.00      DRAINAGE RATE     : 0.60         FERT. FACTOR : 1.00

 Wheat            CULTIVAR: 542933-ENTRY 13           ECOTYPE: CAWH01
   P1V   P1D    P5    G1    G2    G3 PHINT
  25.3  50.7 622.1  15.9  52.6  0.93  86.0


*SIMULATED CROP AND SOIL STATUS AT MAIN DEVELOPMENT STAGES
  
 RUN NO.     55   ROOTS ANATOMY DROUGHT                                       

 ...... DATE ......  GROWTH STAGE BIOMASS   LEAF       CROP N      STRESS
 YEARDOY DOM MON DAP ............. kg/ha AREA NUMBER  kg/ha   %   H2O    N
 2022337   3 Dec   0 7 Sowing         0  0.00   0.0     0   0.0  0.00  0.00
 2022338   4 Dec   1 8 Germinate      0  0.00   0.0     0   0.0  0.00  0.00
 2022339   5 Dec   2 9 Emergence      0  0.00   0.0     0   0.0  0.00  0.00
 2023037   6 Feb  65 1 Term Spklt  1420  1.25  12.8    43   3.0  0.40  0.06
 2023054  23 Feb  82 2 End Veg     1960  2.09  15.9    60   3.0  0.62  0.00
 2023065   6 Mar  93 3 End Ear Gr  2378  1.49  15.9    59   2.5  0.73  0.00
 2023075  16 Mar 103 4 Beg Gr Fil  2678  0.65  15.9    59   2.2  0.82  0.00
 2023108  18 Apr 136 5 End Gr Fil  4437  0.00  15.9    68   1.5  0.01  0.00
 2023108  18 Apr 136 6 Harvest     4437  0.00  15.9    68   1.5  0.00  0.00
  

*MAIN GROWTH AND DEVELOPMENT VARIABLES

@     VARIABLE                             SIMULATED     MEASURED
      --------                             ---------     --------
      Emergence (DAP)                            2            6
      Anthesis (DAP)                            96           86
      Maturity (DAP)                           136          118
      Product wt (kg dm/ha;no loss)           1869         3437
      Product unit weight (g dm)             0.053        0.039
      Product number (no/m2)                  3553         8856
      Product number (no/group)                5.8        -99.0
      Product harvest index (ratio)           0.42         0.41
      Maximum leaf area index                  2.1          4.6
      Final leaf number (one axis)            15.9        -99.0
      Final shoot number (#/m2)                611          -99
      Canopy (tops) wt (kg dm/ha)             4437         8377
      Vegetative wt (kg dm/ha)                2568         4940
      Root wt (kg dm/ha)                       553          -99
      Assimilate wt (kg dm/ha)                5841          -99
      Senesced wt (kg dm/ha)                   522          -99
      Reserves wt (kg dm/ha)                  1178          -99
      N uptake (kg/ha)                        83.1        -99.0
      N senesced (kg/ha)                       7.2        -99.0
      Above-ground N (kg/ha)                  68.1        -99.0
      Root N (kg/ha)                           9.3        -99.0
      Vegetative N (kg/ha)                    11.2        -99.0
      Product N (kg/ha)                       56.8         68.3
      Product N harvest index (ratio)         0.83       -99.00
      Product N (%)                            3.0          2.0
      Vegetative N (%)                         0.4        -99.0
      Leaf+stem wt,anthesis (kg dm/ha)        2472          -99
      Leaf+stem N,anthesis (kg/ha)            58.7        -99.0
      Leaf N,anthesis (%)                      3.0        -99.0

*ENVIRONMENTAL AND STRESS FACTORS

 |-----Development Phase------|-------------Environment--------------|----------------Stress-----------------|
                              |--------Average-------|---Cumulative--|         (0=Min, 1=Max Stress)         |
                         Time  Temp  Temp Solar Photop         Evapo |----Water---|--Nitrogen--|--Phosphorus-|
                         Span   Max   Min   Rad  [day]   Rain  Trans  Photo         Photo         Photo
                         days    °C    °C MJ/m2     hr     mm     mm  synth Growth ' synth Growth  synth Growth
--------------------------------------------------------------------------------------------------------------
 Germinate  - Term Spklt   63  25.7   6.5  14.6  11.40   10.1   44.1  0.403  0.522  0.059  0.059 -99.00 -99.00
 Term Spklt - End Veg      17  24.1   7.4  15.3  11.97   12.1   18.1  0.620  0.697  0.000  0.000 -99.00 -99.00
 End Veg    - End Ear Gr   11  24.8   5.6  18.4  12.30    0.1    8.6  0.730  0.792  0.000  0.000 -99.00 -99.00
 End Ear Gr - Beg Gr Fil   10  30.4   9.3  21.0  12.58    0.0    4.7  0.816  0.859  0.000  0.000 -99.00 -99.00
 Beg Gr Fil - End Gr Fil   33  29.2   9.0  23.7  13.18   65.8   32.8  0.012  0.016  0.000  0.000 -99.00 -99.00
  
 Germinate  - End Gr Fil  134  26.6   7.3  17.7  12.07   88.1  108.3  0.392  0.467  0.028  0.028 -99.00 -99.00
--------------------------------------------------------------------------------------------------------------


*RESOURCE PRODUCTIVITY

 Growing season length: 134 days 

 Precipitation during growth season         88.1 mm[rain]
   Dry Matter Productivity                  5.04 kg[DM]/m3[rain]          =   50.4 kg[DM]/ha per mm[rain]
   Yield Productivity                       2.12 kg[grain yield]/m3[rain] =   21.2 kg[yield]/ha per mm[rain]

 Evapotranspiration during growth season   108.3 mm[ET]
   Dry Matter Productivity                  4.10 kg[DM]/m3[ET]            =   41.0 kg[DM]/ha per mm[ET]
   Yield Productivity                       1.73 kg[grain yield]/m3[ET]   =   17.3 kg[yield]/ha per mm[ET]

 Transpiration during growth season         74.0 mm[EP]
   Dry Matter Productivity                  6.00 kg[DM]/m3[EP]            =   60.0 kg[DM]/ha per mm[EP]
   Yield Productivity                       2.53 kg[grain yield]/m3[EP]   =   25.3 kg[yield]/ha per mm[EP]

 Irrigation during growing season          120.0 mm[irrig]
   Dry Matter Productivity                  3.70 kg[DM]/m3[irrig]         =   37.0 kg[DM]/ha per mm[irrig]
   Yield Productivity                       1.56 kg[grain yield]/m3[irrig]=   15.6 kg[yield]/ha per mm[irrig]

 N applied during growing season           173.0 kg[N applied]/ha
   Dry Matter Productivity                  25.6 kg[DM]/kg[N applied]
   Yield Productivity                       10.8 kg[yield]/kg[N applied]

 N uptake during growing season             83.1 kg[N uptake]/ha
   Dry Matter Productivity                  53.4 kg[DM]/kg[N uptake]
   Yield Productivity                       22.5 kg[yield]/kg[N uptake]

--------------------------------------------------------------------------------------------------------------

          WHEAT YIELD :     1869 kg/ha    [Dry weight] 

**************************************************************************************************************
  

*DSSAT Cropping System Model Ver. 4.8.2.000 -release  APR 06, 2025 18:58:51

*RUN  56        : DR23_G-14                 CSCER048 CIOB2302   14
 MODEL          : CSCER048 - Wheat
 EXPERIMENT     : CIOB2302 WH ROOTS ANATOMY DROUGHT
 DATA PATH      : C:\DSSAT48\Wheat\
 TREATMENT 14   : DR23_G-14                 CSCER048


 CROP           : Wheat            CULTIVAR : ENTRY 14         ECOTYPE :CAWH01
 STARTING DATE  : SEP  1 2022
 PLANTING DATE  : DEC  3 2022      PLANTS/m2 :   150.0    ROW SPACING :  36.cm
 WEATHER        : CIOB   2022
 SOIL           : CCENEB2301     TEXTURE : C     -   CIMMYT CENEB 710
 SOIL INIT COND : DEPTH:120cm EXTR. H2O: 82.8mm  NO3:252.3kg/ha  NH4:205.5kg/ha
 WATER BALANCE  : IRRIGATE ON REPORTED DATE(S)
 IRRIGATION     :      120 mm IN     1 APPLICATIONS
 NITROGEN BAL.  : SOIL-N & N-UPTAKE SIMULATION; NO N-FIXATION
 N-FERTILIZER   :      173 kg/ha IN     2 APPLICATIONS
 RESIDUE/MANURE : INITIAL :     0 kg/ha ;    2222 kg/ha IN     1 APPLICATIONS
 ENVIRONM. OPT. : DAYL=    0.00  SRAD=    0.00  TMAX=    0.00  TMIN=    0.00
                  RAIN=    0.00  CO2 =    0.00  DEW =    0.00  WIND=    0.00
 SIMULATION OPT : WATER   :Y  NITROGEN:Y  N-FIX:N  PHOSPH :N  PESTS  :N
                  PHOTO   :C  ET      :R  INFIL:S  HYDROL :R  SOM    :G
                  CO2 418ppm  NSWIT   :1  EVAP :R  SOIL   :2  STEMP  :D
 MANAGEMENT OPT : PLANTING:R  IRRIG   :R  FERT :R  RESIDUE:R  HARVEST:M
                  WEATHER :M  TILLAGE :Y

*SUMMARY OF SOIL AND GENETIC INPUT PARAMETERS

   SOIL LOWER UPPER   SAT  EXTR  INIT   ROOT   BULK     pH    NO3    NH4    ORG
  DEPTH LIMIT LIMIT    SW    SW    SW   DIST   DENS                          C
   cm   cm3/cm3    cm3/cm3    cm3/cm3         g/cm3         ugN/g  ugN/g     %
-------------------------------------------------------------------------------
  0-  5 0.143 0.204 0.268 0.061 0.204   1.00   1.35   8.80  19.00  12.00   1.10
  5- 15 0.143 0.204 0.268 0.061 0.204   1.00   1.35   8.80  19.00  12.00   1.10
 15- 30 0.143 0.204 0.268 0.061 0.204   1.00   1.35   8.80  19.00  12.00   1.10
 30- 45 0.166 0.234 0.274 0.068 0.230   0.41   1.58   8.50  18.00  16.00   0.40
 45- 60 0.166 0.234 0.274 0.068 0.230   0.41   1.58   8.50  18.00  16.00   0.40
 60- 90 0.155 0.227 0.276 0.072 0.230   0.22   1.50   8.50  20.00  18.00   0.40
 90-120 0.188 0.263 0.308 0.075 0.263   0.12   1.38   8.00   0.01   0.01   0.40

TOT-120  19.6  27.8  33.8   8.3  27.8  <--cm   -  kg/ha-->  252.3  205.5  98070
SOIL ALBEDO    : 0.13      EVAPORATION LIMIT : 6.00         MIN. FACTOR  : 1.00
RUNOFF CURVE # :61.00      DRAINAGE RATE     : 0.60         FERT. FACTOR : 1.00

 Wheat            CULTIVAR: 589328-ENTRY 14           ECOTYPE: CAWH01
   P1V   P1D    P5    G1    G2    G3 PHINT
  34.9  44.5 646.3  29.8  13.5  3.21  86.0


*SIMULATED CROP AND SOIL STATUS AT MAIN DEVELOPMENT STAGES
  
 RUN NO.     56   ROOTS ANATOMY DROUGHT                                       

 ...... DATE ......  GROWTH STAGE BIOMASS   LEAF       CROP N      STRESS
 YEARDOY DOM MON DAP ............. kg/ha AREA NUMBER  kg/ha   %   H2O    N
 2022337   3 Dec   0 7 Sowing         0  0.00   0.0     0   0.0  0.00  0.00
 2022338   4 Dec   1 8 Germinate      0  0.00   0.0     0   0.0  0.00  0.00
 2022339   5 Dec   2 9 Emergence      0  0.00   0.0     0   0.0  0.00  0.00
 2023033   2 Feb  61 1 Term Spklt  1330  1.15  12.0    39   2.9  0.39  0.06
 2023050  19 Feb  78 2 End Veg     1829  1.90  15.1    53   2.9  0.64  0.00
 2023061   2 Mar  89 3 End Ear Gr  2321  1.32  15.1    52   2.2  0.64  0.00
 2023072  13 Mar 100 4 Beg Gr Fil  2678  0.53  15.1    52   1.9  0.79  0.00
 2023106  16 Apr 134 5 End Gr Fil  3683  0.00  15.1    52   1.4  0.07  0.00
 2023106  16 Apr 134 6 Harvest     3683  0.00  15.1    52   1.4  0.00  0.00
  

*MAIN GROWTH AND DEVELOPMENT VARIABLES

@     VARIABLE                             SIMULATED     MEASURED
      --------                             ---------     --------
      Emergence (DAP)                            2            6
      Anthesis (DAP)                            93           83
      Maturity (DAP)                           134          114
      Product wt (kg dm/ha;no loss)            898         3107
      Product unit weight (g dm)             0.014        0.034
      Product number (no/m2)                  6651         9175
      Product number (no/group)               16.5        -99.0
      Product harvest index (ratio)           0.24         0.44
      Maximum leaf area index                  1.9          4.3
      Final leaf number (one axis)            15.1        -99.0
      Final shoot number (#/m2)                403          -99
      Canopy (tops) wt (kg dm/ha)             3683         7086
      Vegetative wt (kg dm/ha)                2785         3979
      Root wt (kg dm/ha)                       512          -99
      Assimilate wt (kg dm/ha)                4931          -99
      Senesced wt (kg dm/ha)                   437          -99
      Reserves wt (kg dm/ha)                  1403          -99
      N uptake (kg/ha)                        65.3        -99.0
      N senesced (kg/ha)                       6.1        -99.0
      Above-ground N (kg/ha)                  52.1        -99.0
      Root N (kg/ha)                           8.6        -99.0
      Vegetative N (kg/ha)                    24.8        -99.0
      Product N (kg/ha)                       27.2         59.1
      Product N harvest index (ratio)         0.52       -99.00
      Product N (%)                            3.0          1.9
      Vegetative N (%)                         0.9        -99.0
      Leaf+stem wt,anthesis (kg dm/ha)        2461          -99
      Leaf+stem N,anthesis (kg/ha)            52.0        -99.0
      Leaf N,anthesis (%)                      3.0        -99.0

*ENVIRONMENTAL AND STRESS FACTORS

 |-----Development Phase------|-------------Environment--------------|----------------Stress-----------------|
                              |--------Average-------|---Cumulative--|         (0=Min, 1=Max Stress)         |
                         Time  Temp  Temp Solar Photop         Evapo |----Water---|--Nitrogen--|--Phosphorus-|
                         Span   Max   Min   Rad  [day]   Rain  Trans  Photo         Photo         Photo
                         days    °C    °C MJ/m2     hr     mm     mm  synth Growth ' synth Growth  synth Growth
--------------------------------------------------------------------------------------------------------------
 Germinate  - Term Spklt   59  25.5   6.5  14.5  11.38   10.0   41.3  0.385  0.507  0.062  0.062 -99.00 -99.00
 Term Spklt - End Veg      17  25.2   6.5  15.4  11.88   11.8   14.4  0.639  0.712  0.000  0.000 -99.00 -99.00
 End Veg    - End Ear Gr   11  23.3   7.9  16.3  12.20    0.5   12.4  0.638  0.722  0.000  0.000 -99.00 -99.00
 End Ear Gr - Beg Gr Fil   11  29.4   7.1  21.5  12.49    0.0    5.5  0.791  0.839  0.000  0.000 -99.00 -99.00
 Beg Gr Fil - End Gr Fil   34  29.2   9.0  23.4  13.11   65.8   23.8  0.065  0.077  0.000  0.000 -99.00 -99.00
  
 Germinate  - End Gr Fil  132  26.6   7.3  17.6  12.05   88.1   97.3  0.390  0.469  0.028  0.028 -99.00 -99.00
--------------------------------------------------------------------------------------------------------------


*RESOURCE PRODUCTIVITY

 Growing season length: 132 days 

 Precipitation during growth season         88.1 mm[rain]
   Dry Matter Productivity                  4.18 kg[DM]/m3[rain]          =   41.8 kg[DM]/ha per mm[rain]
   Yield Productivity                       1.02 kg[grain yield]/m3[rain] =   10.2 kg[yield]/ha per mm[rain]

 Evapotranspiration during growth season    97.3 mm[ET]
   Dry Matter Productivity                  3.78 kg[DM]/m3[ET]            =   37.8 kg[DM]/ha per mm[ET]
   Yield Productivity                       0.92 kg[grain yield]/m3[ET]   =    9.2 kg[yield]/ha per mm[ET]

 Transpiration during growth season         62.5 mm[EP]
   Dry Matter Productivity                  5.89 kg[DM]/m3[EP]            =   58.9 kg[DM]/ha per mm[EP]
   Yield Productivity                       1.44 kg[grain yield]/m3[EP]   =   14.4 kg[yield]/ha per mm[EP]

 Irrigation during growing season          120.0 mm[irrig]
   Dry Matter Productivity                  3.07 kg[DM]/m3[irrig]         =   30.7 kg[DM]/ha per mm[irrig]
   Yield Productivity                       0.75 kg[grain yield]/m3[irrig]=    7.5 kg[yield]/ha per mm[irrig]

 N applied during growing season           173.0 kg[N applied]/ha
   Dry Matter Productivity                  21.3 kg[DM]/kg[N applied]
   Yield Productivity                        5.2 kg[yield]/kg[N applied]

 N uptake during growing season             65.3 kg[N uptake]/ha
   Dry Matter Productivity                  56.4 kg[DM]/kg[N uptake]
   Yield Productivity                       13.8 kg[yield]/kg[N uptake]

--------------------------------------------------------------------------------------------------------------

          WHEAT YIELD :      898 kg/ha    [Dry weight] 

**************************************************************************************************************
