$GROWTH ASPECTS OUTPUT FILE

*DSSAT Cropping System Model Ver. 4.8.2.000 -release  APR 06, 2025 18:58:49

*RUN   1        : WW23_G-1                  CSCER048 CIOB2301    1
 MODEL          : CSCER048 - Wheat
 EXPERIMENT     : CIOB2301 WH ROOTS ANATOMY
 DATA PATH      : C:\DSSAT48\Wheat\
 TREATMENT  1   : WW23_G-1                  CSCER048
  
@YEAR DOY   DAS   DAP TMEAN TKILL  GSTD  L#SD PARID PARUD  AWAD  LAID  SAID  CAID  TWAD SDWAD  RWAD  CWAD  LWAD  SWAD  HWAD  HIAD CHWAD  EWAD RSWAD SNWPD SNWLD SNWSD  RS%D  H#AD  HWUD  T#AD  SLAD  RDPD  PTFD  SWXD WAVRD WUPRD  WFTD  WFPD  WFGD  NFTD  NFPD  NFGD NUPRD  TFPD  TFGD VRNFD DYLFD
 2022 327    83     0  17.6  -6.0  0.00  0.00  0.00  0.00   0.0  0.00 0.000  0.00    43    43     0     0     0     0     0  0.00     0     0     0     0     0     0   0.0     0     0   150   -99  0.04  0.00  19.7  99.9  1.00  0.00  0.00  0.00  0.00  0.00  0.00   0.0  0.00  0.00  0.50  0.00
 2022 328    84     1  16.4  -6.0  5.84  0.00  0.00  0.00   0.0  0.00 0.000  0.00    43    43     0     0     0     0     0  0.00     0     0     0     0     0     0   0.0     0     0   150   -99  0.04  0.00   7.2  99.9  1.00  0.00  0.00  0.00  0.00  0.00  0.00   0.0  0.00  0.00  0.50  0.00
 2022 329    85     2  17.4  -6.0  8.40  0.00  0.00  0.00   0.0  0.00 0.000  0.00    43    41     1     0     0     0     0  0.00     0     0     0     0     0     0   0.0     0     0   150   -99  0.07  0.00   4.4  99.9  1.00  0.00  0.00  0.00  0.00  0.00  0.00   0.0  0.00  0.00  0.50  0.00
 2022 330    86     3  18.0  -6.0 10.00  0.00  0.00  0.00   0.0  0.00 0.000  0.00    43    40     3     0     0     0     0  0.00     0     0     0     0     0 .0012   0.0     0     0   150   -99  0.09  0.00   3.8  99.9  1.00  0.00  0.00  0.00  0.00  0.00  0.00   2.0  0.00  0.00  0.50  0.00
 2022 331    87     4  16.3  -6.0 10.38  0.38  0.01  0.00   0.0  0.02 0.002  0.02    43    30     4     8     6     3     0  0.00     0     0     0     0     0 .0034   0.0     0     0   150   300  0.12  0.75   4.0  99.9  1.00  0.00  0.00  0.00  0.00  0.00  0.00   0.1  0.00  0.00  0.50  0.39
 2022 332    88     5  16.1  -6.0 10.75  0.75  0.02  1.41   1.6  0.02 0.003  0.03    44    26     5    13     8     5     0  0.00     0     0     1     0 .0849 .0066   9.6     0     0   150   297  0.14  0.71   4.3  99.7  0.49  1.00  0.51  0.62  0.00  0.00  0.00   0.3  0.00  0.00  0.50  0.39
 2022 333    89     6  18.1  -6.0 11.18  1.18  0.03  1.41   2.2  0.03 0.003  0.03    46    21     7    18    10     8     0  0.00     0     0     3     0 0.200 .0113  16.0     0     0   150   297  0.17  0.71   5.8  97.3  0.50  1.00  0.50  0.62  0.01  0.01  0.01   0.3  0.00  0.00  0.50  0.39
 2022 334    90     7  18.5  -6.0 11.61  1.61  0.03  1.49   2.9  0.04 0.004  0.04    48    16     8    25    13    12     0  0.00     0     0     5     0 0.349 .0173  20.8     0     0   150   295  0.20  0.72   7.3  96.6  0.57  0.85  0.43  0.56  0.10  0.10  0.10   0.3  0.00  0.00  0.50  0.39
 2022 335    91     8  19.2  -6.0 12.03  2.03  0.04  1.22   3.1  0.05 0.005  0.05    51    11     9    30    16    14     0  0.00     0     0     6     0 0.541 .0250  21.2     0     0   150   294  0.23  0.72   9.0  90.0  0.57  0.86  0.43  0.56  0.26  0.26  0.26   0.4  0.00  0.00  0.50  0.39
 2022 336    92     9  23.0  -6.0 12.29  2.29  0.04  1.11   3.3  0.05 0.006  0.06    53     9    11    34    17    17     0  0.00     0     0     8     0 0.774 .0359  23.7     0     0   150   293  0.26  0.72  11.0  89.0  0.57  0.86  0.43  0.56  0.32  0.32  0.32   1.0  0.00  0.20  0.50  0.39
 2022 337    93    10  23.0  -6.0 12.56  2.56  0.05  1.37   4.0  0.06 0.007  0.06    57     9    11    37    19    18     0  0.00     0     0     8     0 0.774 .0480  22.6     0     0   150   291  0.29  0.73  13.0  99.9  0.66  0.68  0.34  0.49  0.28  0.28  0.28   1.1  0.00  0.20  0.50  0.40
 2022 338    94    11  22.0  -6.0 12.82  2.82  0.05  1.48   4.5  0.06 0.007  0.07    61     9    12    40    21    19     0  0.00     0     0     9     0 0.774 .0604  21.5     0     0   150   290  0.33  0.73  14.8  99.9  0.67  0.66  0.33  0.48  0.24  0.24  0.24   1.0  0.00  0.13  0.50  0.40
 2022 339    95    12  22.2  -6.0 13.08  3.08  0.06  2.30   3.2  0.07 0.008  0.08    64     9    13    43    23    19     0  0.00     0     0     8     0 0.774 .0739  18.4     0     0   150   289  0.36  0.74  17.3  99.9  1.62  0.00  0.00  0.00  0.20  0.20  0.20   1.1  0.00  0.15  0.50  0.40
 2022 340    96    13  19.7  -6.0 13.30  3.30  0.06  2.39   2.6  0.07 0.009  0.08    66     9    13    45    25    19     0  0.00     0     0     7     0 0.774 .0862  15.9     0     0   179   288  0.38  0.75  21.0  99.9  2.23  0.00  0.00  0.00  0.17  0.17  0.17   1.4  0.00  0.00  0.50  0.40
 2022 341    97    14  20.0  -6.0 13.54  3.54  0.07  2.46   4.8  0.08 0.010  0.09    70     9    14    48    28    20     0  0.00     0     0     6     0 0.774 0.099  13.3     0     0   208   286  0.40  0.75  21.6  99.9  1.37  0.00  0.00  0.00  0.15  0.15  0.15   1.1  0.00  0.00  0.50  0.40
 2022 342    98    15  20.8  -6.0 13.78  3.78  0.07  1.54   6.9  0.09 0.011  0.10    76     9    15    53    31    22     0  0.00     0     0     7     0 0.774 0.113  13.9     0     0   216   285  0.42  0.73  22.4  99.9  0.61  0.78  0.39  0.53  0.12  0.12  0.12   1.1  0.00  0.05  0.50  0.40
 2022 343    99    16  18.0  -6.0 13.99  3.99  0.08  1.51   8.2  0.09 0.011  0.10    83     9    16    59    32    26     0  0.00     0     0    10     0 1.221 0.127  17.2     0     0   222   284  0.44  0.72  23.7  99.9  0.59  0.83  0.41  0.55  0.10  0.10  0.10   1.4  0.00  0.00  0.50  0.40
 2022 344   100    17  17.0  -6.0 14.19  4.19  0.08  1.58   9.5  0.10 0.012  0.11    92     9    18    66    35    31     0  0.00     0     0    13     0 1.221 0.140  20.1     0     0   228   283  0.45  0.73  24.8  99.9  0.60  0.80  0.40  0.54  0.09  0.09  0.09   1.8  0.00  0.00  0.50  0.40
 2022 345   101    18  16.2  -6.0 14.37  4.37  0.08  1.77  11.0  0.10 0.012  0.11   100     9    19    72    36    36     0  0.00     0     0    18     0 2.561 0.155  25.4     0     0   237   282  0.47  0.73  25.9  99.9  0.67  0.67  0.33  0.49  0.07  0.07  0.07   1.5  0.00  0.00  0.50  0.40
 2022 346   102    19  16.1  -6.0 14.56  4.56  0.09  1.98  12.7  0.10 0.013  0.12   110     9    21    80    37    43     0  0.00     0     0    24     0 3.901 0.170  30.2     0     0   250   281  0.48  0.74  26.8  99.9  0.73  0.53  0.27  0.44  0.06  0.06  0.06   2.0  0.00  0.00  0.50  0.40
 2022 347   103    20  15.1  -6.0 14.74  4.74  0.09  2.37  15.0  0.11 0.014  0.12   123     9    24    90    39    51     0  0.00     0     0    31     0 5.160 0.186  34.5     0     0   270   279  0.50  0.76  74.3  99.9  0.87  0.26  0.13  0.33  0.05  0.05  0.05   2.0  0.00  0.00  0.50  0.40
 2022 348   104    21  15.2  -6.0 14.91  4.91  0.10  2.75  19.5  0.12 0.015  0.14   139     9    26   104    43    61     0  0.00     0     0    39     0 6.431 0.204  37.1     0     0   295   278  0.51  0.77  57.4  99.9  2.56  0.00  0.00  0.00  0.04  0.04  0.04   2.0  0.00  0.00  0.50  0.40
 2022 349   105    22  14.6  -6.0 21.13  5.08  0.11  2.78  20.9  0.13 0.017  0.15   157     9    29   120    48    71     0  0.00     0     0    46     0 7.126 0.224  38.5     0     0   320   276  0.53  0.77  42.1  99.9  2.82  0.00  0.00  0.00  0.03  0.03  0.03   2.0  0.00  0.00  0.50  0.40
 2022 350   106    23  12.5  -6.0 21.27  5.23  0.12  2.81  13.0  0.15 0.019  0.17   168     9    31   129    56    73     0  0.00     0     0    45     0 7.903 0.242  34.7     0     0   341   274  0.54  0.77  35.9  99.9  3.77  0.00  0.00  0.00  0.02  0.02  0.02   1.5  0.00  0.00  0.49  0.40
 2022 351   107    24  14.9  -6.0 21.45  5.40  0.14  2.83  25.2  0.17 0.023  0.20   190     9    34   147    64    83     0  0.00     0     0    50     0 8.838 0.265  33.9     0     0   367   272  0.55  0.77  33.9  99.9  1.97  0.00  0.00  0.00  0.02  0.02  0.02   1.1  0.00  0.00  0.49  0.40
 2022 352   108    25  15.5  -6.0 21.62  5.58  0.15  2.84  28.9  0.20 0.026  0.22   215     9    38   168    73    96     0  0.00     0     0    57     0 9.813 0.292  34.1     0     0   394   270  0.57  0.77  34.4  94.0  1.87  0.00  0.00  0.00  0.01  0.01  0.01   1.2  0.00  0.00  0.49  0.40
 2022 353   109    26  14.8  -6.0 21.79  5.76  0.17  2.86  33.0  0.22 0.029  0.25   244     9    43   193    81   112     0  0.00     0     0    69     0 10.75 0.320  35.7     0     0   419   269  0.58  0.77  34.9  84.7  1.73  0.00  0.00  0.00  0.01  0.01  0.01   1.4  0.00  0.00  0.49  0.40
 2022 354   110    27  16.6  -6.0 21.99  5.95  0.19  2.87  33.3  0.24 0.032  0.28   274     9    47   218    91   127     0  0.00     0     0    79     0 11.80 0.356  36.1     0     0   448   268  0.60  0.77  35.5  83.0  1.75  0.00  0.00  0.00  0.00  0.00  0.00   1.4  0.00  0.00  0.49  0.40
 2022 355   111    28  15.2  -6.0 22.16  6.13  0.20  2.88  41.2  0.27 0.036  0.30   310     9    53   249   101   148     0  0.00     0     0    95     0 12.55 0.392  38.1     0     0   475   267  0.61  0.77  35.9  69.7  1.52  0.00  0.00  0.00  0.00  0.00  0.00   1.6  0.00  0.00  0.49  0.40
 2022 356   112    29  15.3  -6.0 22.43  6.30  0.23  2.88  45.5  0.30 0.040  0.34   351     9    59   283   114   169     0  0.00     0     0   109     0 13.54 0.432  38.4     0     0   515   265  0.63  0.77  36.2  63.6  1.46  0.00  0.00  0.00  0.00  0.00  0.00   1.2  0.00  0.00  0.49  0.40
 2022 357   113    30  15.9  -6.0 22.71  6.49  0.25  2.88  49.7  0.34 0.045  0.38   395     9    66   320   127   193     0  0.00     0     0   125     0 14.58 0.479  39.0     0     0   556   264  0.64  0.78  36.5  57.5  1.40  0.00  0.00  0.00  0.00  0.00  0.00   1.3  0.00  0.00  0.49  0.40
 2022 358   114    31  16.2  -6.0 22.99  6.68  0.27  2.88  54.9  0.37 0.050  0.42   444     9    73   362   141   221     0  0.00     0     0   145     0 15.64 0.533  40.0     0     0   599   263  0.65  0.78  36.7  52.2  1.35  0.00  0.00  0.00  0.00  0.00  0.00   1.4  0.00  0.00  0.49  0.40
 2022 359   115    32  17.8  -6.0 23.30  6.89  0.29  2.88  60.2  0.41 0.056  0.46   497     9    81   408   156   252     0  0.00     0     0   168     0 16.80 0.598  41.1     0     0   645   261  0.67  0.78  36.9  46.2  1.27  0.00  0.00  0.03  0.00  0.00  0.00   1.4  0.00  0.00  0.50  0.40
 2022 360   116    33  17.0  -6.0 23.60  7.08  0.32  2.88  66.1  0.45 0.062  0.51   556     9    90   458   173   285     0  0.00     0     0   191     0 17.92 0.666  41.7     0     0   690   260  0.68  0.78  37.0  42.9  1.25  0.00  0.00  0.04  0.00  0.00  0.00   1.4  0.00  0.00  0.50  0.40
 2022 361   117    34  17.5  -6.0 23.90  7.29  0.34  2.88  70.9  0.49 0.068  0.56   619     9    99   511   191   321     0  0.00     0     0   217     0 19.55 0.745  42.4     0     0   736   259  0.70  0.78  37.1  39.6  1.22  0.00  0.00  0.06  0.00  0.00  0.00   1.4  0.00  0.00  0.50  0.40
 2022 362   118    35  16.6  -6.0 24.19  7.48  0.37  2.88  47.8  0.54 0.075  0.61   661     9   105   547   209   338     0  0.00     0     0   225     0 21.10 0.828  41.1     0     0   779   258  0.71  0.78  37.4  61.7  2.00  0.00  0.00  0.00  0.00  0.00  0.00   1.5  0.00  0.00  0.50  0.40
 2022 363   119    36  17.2  -6.0 24.49  7.68  0.39  2.88  22.1  0.59 0.082  0.67   679     9   108   563   231   332     0  0.00     0     0   208     0 22.72 0.918  37.0     0     0   824   256  0.72  0.78  38.4  99.9  4.41  0.00  0.00  0.00  0.00  0.00  0.00   1.4  0.00  0.00  0.50  0.40
 2022 364   120    37  18.6  -6.0 24.82  7.90  0.42  2.88  82.9  0.64 0.090  0.73   753     9   119   625   250   375     0  0.00     0     0   240     0 24.47 1.019  38.4     0     0   873   255  0.74  0.78  38.4  34.8  1.10  0.00  0.00  0.16  0.00  0.00  0.00   1.4  0.00  0.00  0.50  0.40
 2022 365   121    38  17.8  -6.0 25.10  8.10  0.44  2.75  88.0  0.68 0.096  0.78   831     9   131   692   269   423     0  0.00     0     0   277     0 26.15 1.125  40.1     0     0   915   254  0.75  0.78  38.3  31.4  0.95  0.09  0.05  0.27  0.00  0.00  0.00   1.5  0.00  0.00  0.50  0.40
 2023   1   122    39  16.6  -6.0 25.39  8.30  0.47  2.88  85.0  0.74 0.105  0.84   906     9   142   755   293   463     0  0.00     0     0   303     0 29.17 1.234  40.2     0     0   959   253  0.77  0.78  38.2  35.5  1.04  0.00  0.00  0.20  0.00  0.00  0.00   1.2  0.00  0.00  0.50  0.40
 2023   2   123    40  15.1  -6.0 25.66  8.47  0.49  2.88  73.8  0.80 0.114  0.91   970     9   151   810   318   492     0  0.00     0     0   319     0 31.93 1.341  39.3     0     0   998   252  0.78  0.78  38.3  42.2  1.21  0.00  0.00  0.07  0.00  0.00  0.00   1.3  0.00  0.00  0.50  0.40
 2023   3   124    41  13.8  -6.0 25.82  8.63  0.51  2.41  89.9  0.83 0.120  0.95  1049     9   164   877   333   544     0  0.00     0     0   361     0 34.45 1.446  41.2     0     0  1023   251  0.79  0.77  79.5  61.5  0.84  0.32  0.16  0.35  0.00  0.00  0.00   2.0  0.00  0.00  0.50  0.40
 2023   4   125    42  16.3  -6.0 26.10  8.82  0.54  2.88 113.9  0.90 0.131  1.04  1150     9   179   963   362   601     0  0.00     0     0   401     0 37.44 1.579  41.6     0     0  1066   250  0.80  0.78  63.0  41.1  3.15  0.00  0.00  0.00  0.00  0.00  0.00   2.0  0.00  0.00  0.50  0.40
 2023   5   126    43  17.6  -6.0 26.41  9.03  0.57  2.88 124.2  0.99 0.145  1.14  1260     9   195  1057   400   658     0  0.00     0     0   436     0 40.69 1.737  41.2     0     0  1112   248  0.82  0.78  55.9  33.1  3.11  0.00  0.00  0.00  0.00  0.00  0.00   2.0  0.00  0.00  0.50  0.40
 2023   6   127    44  18.3  -6.0 26.73  9.24  0.60  2.88 129.4  1.09 0.160  1.25  1370     9   211  1150   443   708     0  0.00     0     0   461     0 49.43 1.915  40.1     0     0  1160   246  0.83  0.78  52.8  30.2  2.65  0.00  0.00  0.00  0.00  0.00  0.00   1.7  0.00  0.00  0.50  0.40
 2023   7   128    45  17.7  -6.0 27.04  9.45  0.63  2.88 132.9  1.19 0.176  1.36  1482     9   228  1246   484   762     0  0.00     0     0   491     0 57.94 2.101  39.4     0     0  1206   245  0.85  0.79  51.3  29.1  2.45  0.00  0.00  0.00  0.00  0.00  0.00   1.8  0.00  0.00  0.50  0.40
 2023   8   129    46  17.3  -6.0 27.34  9.65  0.67  2.88 139.6  1.29 0.192  1.48  1602     9   246  1347   529   818     0  0.00     0     0   520     0 66.31 2.299  38.6     0     0  1251   243  0.86  0.79  50.4  27.4  2.21  0.00  0.00  0.00  0.00  0.00  0.00   1.6  0.00  0.00  0.50  0.40
 2023   9   130    47  16.6  -6.0 27.63  9.84  0.69  2.88 153.0  1.39 0.209  1.60  1733     9   265  1460   573   887     0  0.00     0     0   563     0 74.40 2.503  38.5     0     0  1295   242  0.88  0.79  49.4  24.7  1.95  0.00  0.00  0.00  0.00  0.00  0.00   1.7  0.00  0.00  0.50  0.40
 2023  10   131    48  17.2  -6.0 27.93 10.04  0.72  2.88 154.3  1.50 0.227  1.72  1866     9   284  1573   621   952     0  0.00     0     0   599     0 82.79 2.731  38.1     0     0  1340   241  0.89  0.79  48.3  23.7  1.88  0.00  0.00  0.00  0.00  0.00  0.00   1.5  0.00  0.00  0.50  0.40
 2023  11   132    49  17.9  -6.0 28.24 10.25  0.75  2.88 168.7  1.63 0.249  1.88  2008     9   306  1694   682  1011     0  0.00     0     0   623     0 95.07 2.986  36.8     0     0  1387   239  0.91  0.79  47.0  20.7  1.54  0.00  0.00  0.00  0.00  0.00  0.00   1.1  0.00  0.00  0.50  0.39
 2023  12   133    50  18.4  -6.0 28.56 10.46  0.78  2.88 176.9  1.78 0.274  2.06  2157     9   328  1820   749  1071     0  0.00     0     0   644     0 107.8 3.267  35.4     0     0  1435   238  0.92  0.79  45.5  19.1  1.34  0.00  0.00  0.00  0.00  0.00  0.00   1.1  0.00  0.00  0.50  0.39
 2023  13   134    51  16.6  -6.0 28.85 10.66  0.80  2.88 181.6  1.90 0.294  2.20  2311     9   350  1952   804  1148     0  0.00     0     0   688     0 119.3 3.540  35.3     0     0  1478   237  0.93  0.79  44.1  18.4  1.20  0.00  0.00  0.08  0.00  0.00  0.00   1.3  0.00  0.00  0.50  0.39
 2023  14   135    52  17.6  -6.0 29.16 10.86  0.82  2.88 184.3  2.00 0.312  2.31  2467     9   373  2086   850  1236     0  0.00     0     0   746     0 131.6 3.849  35.8     0     0  1524   236  0.95  0.79  42.7  17.2  1.00  0.00  0.00  0.23  0.00  0.00  0.00   1.4  0.00  0.00  0.50  0.39
 2023  15   136    53  16.9  -6.0 29.46 11.06  0.84  2.88 129.3  2.16 0.337  2.50  2574     9   389  2177   921  1255     0  0.00     0     0   729     0 143.2 4.163  33.5     0     0  1568   234  0.96  0.79  42.0  25.1  1.27  0.00  0.00  0.02  0.00  0.00  0.00   0.9  0.00  0.00  0.50  0.39
 2023  16   137    54  17.0  -6.0 29.61 11.26  0.85  2.19 147.4  2.25 0.354  2.61  2692     9   409  2275   965  1310     0  0.00     0     0   757     0 158.2 4.493  33.3     0     0  1592   233  0.98  0.77  41.1  16.3  0.76  0.47  0.24  0.41  0.00  0.00  0.00   1.2  0.00  0.00  0.50  0.39
 2023  17   138    55  14.1  -6.0 29.86 11.42  0.87  2.88  58.8  2.39 0.376  2.77  2734     9   416  2309  1031  1278     0  0.00     0     0   696     0 170.8 4.781  30.1     0     0  1629   232  0.99  0.79  41.6  57.9  2.40  0.00  0.00  0.00  0.00  0.00  0.00   1.0  0.00  0.00  0.50  0.39
 2023  18   139    56  13.8  -6.0 29.96 11.58  0.88  2.02 135.3  2.46 0.388  2.85  2843     9   435  2400  1062  1338     0  0.00     0     0   734     0 183.2 5.069  30.6     0     0  1643   231  1.00  0.76  40.8  17.2  0.70  0.59  0.30  0.46  0.00  0.00  0.00   1.8  0.00  0.00  0.49  0.39
 2023  19   140    57  14.2  -6.0 30.00 11.75  0.88  1.81 121.3  2.51 0.399  2.91  2940     9   452  2479  1089  1390     0  0.00     0     0   768     0 196.0 5.379  31.0     0     0  1653   231  1.01  0.76  40.1  16.6  0.63  0.74  0.37  0.52  0.00  0.00  0.00   1.9  0.00  0.00  0.49  0.39
 2023  20   141    58  13.8  -6.0 30.00 11.91  0.88  1.50 113.0  2.50 0.400  2.90  3013     9   469  2536  1088  1447     0  0.00     0     0   820     0 223.6 5.690  32.3     0     0  1655   230  1.02  0.75  96.6  35.6  0.52  0.96  0.48  0.60  0.00  0.00  0.00   2.0  0.00  0.00  0.49  0.38
 2023  21   142    59  14.1  -6.0 30.00 12.07  0.90  2.88 217.9  2.74 0.439  3.18  3213     9   496  2709  1197  1512     0  0.00     0     0   826     0 223.6 6.021  30.5     0     0  1691   229  1.03  0.80  80.6  29.5  5.06  0.00  0.00  0.00  0.00  0.00  0.00   2.0  0.00  0.00  0.49  0.38
 2023  22   143    60  14.1  -6.0 30.00 12.23  0.92  2.88 228.4  2.95 0.476  3.43  3404     9   523  2872  1298  1574     0  0.00     0     0   830     0 242.2 6.369  28.9     0     0  1728   227  1.05  0.80  73.1  25.4  5.06  0.00  0.00  0.00  0.00  0.00  0.00   1.5  0.00  0.00  0.48  0.38
 2023  23   144    61  12.6  -6.0 30.00 12.38  0.93  2.88 196.8  3.14 0.509  3.65  3568     9   547  3012  1389  1623     0  0.00     0     0   830     0 258.9 6.697  27.5     0     0  1761   226  1.06  0.80  71.2  29.9  6.39  0.00  0.00  0.00  0.00  0.00  0.00   2.0  0.00  0.00  0.48  0.38
 2023  24   145    62  13.1  -6.0 30.00 12.53  0.94  2.88 236.9  3.34 0.544  3.88  3767     9   576  3183  1484  1699     0  0.00     0     0   851     0 276.4 7.056  26.7     0     0  1795   225  1.07  0.80  68.8  23.7  4.81  0.00  0.00  0.00  0.00  0.00  0.00   1.9  0.00  0.00  0.47  0.38
 2023  25   146    63  14.5  -6.0 30.00 12.70  0.95  2.88 240.9  3.56 0.582  4.14  3969     9   604  3356  1589  1767     0  0.00     0     0   860     0 295.9 7.473  25.6     0     0  1833   224  1.08  0.80  66.3  21.5  4.02  0.00  0.00  0.00  0.00  0.00  0.00   1.7  0.00  0.00  0.47  0.38
 2023  26   147    64  15.7  -6.0 30.00 12.88  0.96  2.88 224.3  3.80 0.625  4.43  4154     9   631  3514  1709  1805     0  0.00     0     0   835     0 317.0 7.946  23.8     0     0  1874   223  1.09  0.80  64.1  21.9  3.92  0.00  0.00  0.00  0.00  0.00  0.00   1.4  0.00  0.00  0.47  0.38
 2023  27   148    65  12.1  -6.0 30.00 13.02  0.97  2.88 180.9  4.01 0.660  4.67  4303     9   653  3642  1808  1834     0  0.00     0     0   812     0 333.4 8.329  22.3     0     0  1906   222  1.10  0.80  62.5  28.2  4.70  0.00  0.00  0.00  0.00  0.00  0.00   1.8  0.00  0.00  0.46  0.37
 2023  28   149    66  15.6  -6.0 30.00 13.20  0.97  2.88 203.0  4.22 0.698  4.92  4453     9   677  3768  1915  1853     0  0.00     0     0   774     0 369.5 8.839  20.5     0     0  1947   220  1.11  0.80  60.7  22.5  3.45  0.00  0.00  0.00  0.00  0.00  0.00   1.2  0.00  0.00  0.46  0.37
 2023  29   150    67  14.4  -6.0 30.00 13.37  0.98  2.88 247.4  4.57 0.758  5.33  4676     9   706  3962  2088  1874     0  0.00     0     0   710     0 373.5 9.327  17.9     0     0  1985   219  1.13  0.80  58.3  18.1  2.42  0.00  0.00  0.00  0.00  0.00  0.00   1.2  0.00  0.00  0.00  0.00
 2023  30   151    68  14.6  -6.0 30.00 13.54  0.98  2.88 222.5  4.88 0.810  5.69  4873     9   732  4133  2239  1895     0  0.00     0     0   655     0 381.0 9.841  15.9     0     0  2023   218  1.14  0.80  56.2  19.3  2.21  0.00  0.00  0.00  0.00  0.00  0.00   1.0  0.00  0.00  0.00  0.00
 2023  31   152    69  14.5  -6.0 30.00 13.71  0.99  2.88 229.2  5.17 0.863  6.04  5077     9   758  4310  2390  1920     0  0.00     0     0   607     0 388.6 10.37  14.1     0     0  2061   217  1.15  0.80  54.1  18.0  1.82  0.00  0.00  0.00  0.00  0.00  0.00   1.1  0.00  0.00  0.00  0.00
 2023  32   153    70  13.4  -6.0 30.00 13.87  0.99  2.88 171.8  5.41 0.904  6.31  5228     9   777  4442  2510  1932     0  0.00     0     0   562     0 395.6 10.88  12.7     0     0  2096   215  1.16  0.81  52.7  24.2  2.14  0.00  0.00  0.00  0.00  0.00  0.00   1.5  0.00  0.00  0.00  0.00
 2023  33   154    71  15.9  -6.0 30.17 14.05  0.99  2.88 236.3  5.69 0.955  6.64  5437     9   804  4625  2653  1972     0  0.00     0     0   527     0 403.9 11.49  11.4     0     0  2137   214  1.17  0.81  50.4  15.8  1.31  0.00  0.00  0.00  0.00  0.00  0.00   1.1  0.00  0.00  0.00  0.00
 2023  34   155    72  16.9  -6.0 31.04 14.25  0.99  2.88 235.3  5.94 1.005  6.95  5645     9   829  4807  2792  2016     0  0.00     0     0   497     0 412.8 12.17  10.3     0     0  2181   213  1.19  0.81  94.8  28.8  1.08  0.00  0.00  0.17  0.00  0.00  0.00   1.1  0.00  0.00  0.00  0.00
 2023  35   156    73  16.9  -6.0 31.91 14.44  0.99  2.88 244.3  6.20 1.055  7.26  5862     9   856  4998  2930  2067     0  0.00     0     0   472     0 421.7 12.87   9.5     0     0  2225   212  1.20  0.82  89.4  26.1  5.71  0.00  0.00  0.00  0.00  0.00  0.00   2.0  0.00  0.00  0.00  0.00
 2023  36   157    74  18.1  -6.0 32.85 14.65  1.00  2.88 244.6  6.44 1.105  7.55  6079     9   881  5189  3064  2125     0  0.00     0     0   452     0 431.3 13.65   8.7     0     0  2273   210  1.22  0.82  84.3  24.0  7.16  0.00  0.00  0.00  0.00  0.00  0.00   2.0  0.00  0.00  0.00  0.00
 2023  37   158    75  16.7  -6.0 33.71 14.85  1.00  2.88 234.8  6.67 1.152  7.83  6287     9   905  5373  3192  2182     0  0.00     0     0   434     0 440.2 14.38   8.1     0     0  2316   209  1.22  0.82  81.2  25.0  7.85  0.00  0.00  0.00  0.00  0.00  0.00   2.0  0.00  0.00  0.00  0.00
 2023  38   159    76  16.2  -6.0 34.55 15.04  1.00  2.88 255.0  6.91 1.203  8.11  6515     9   931  5575  3323  2252     0  0.00     0     0   421     0 448.8 15.12   7.6     0     0  2316   208  1.22  0.83  77.7  22.4  7.11  0.00  0.00  0.00  0.00  0.00  0.00   2.0  0.00  0.00  0.00  0.00
 2023  39   160    77  18.1  -6.0 35.49 15.25  1.00  2.88 262.4  7.14 1.254  8.39  6749     9   957  5783  3453  2331     0  0.00     0     0   412     0 458.5 15.96   7.1     0     0  2316   207  1.22  0.83  73.9  19.7  5.78  0.00  0.00  0.00  0.00  0.00  0.00   2.0  0.00  0.00  0.00  0.00
 2023  40   161    78  15.1  -6.0 36.27 15.42  1.00  2.88 265.4  7.36 1.306  8.67  6988     9   983  5996  3583  2413     0  0.00     0     0   405     0 466.5 16.68   6.8     0     0  2316   205  1.22  0.83  70.3  19.5  4.94  0.00  0.00  0.00  0.00  0.00  0.00   2.0  0.00  0.00  0.00  0.00
 2023  41   162    79  17.1  -6.0 37.15 15.62  1.00  2.88 233.9  7.52 1.352  8.87  7196     9  1005  6183  3695  2487     0  0.00     0     0   398     0 475.7 17.53   6.4     0     0  2261   203  1.22  0.84  67.0  20.2  4.55  0.00  0.00  0.00  0.00  0.00  0.00   2.0  0.00  0.00  0.00  0.00
 2023  42   163    80  14.0  -6.0 37.88 15.78  1.00  2.88  84.7  7.58 1.372  8.95  7267     9  1013  6246  3746  2500     0  0.00     0     0   375     0 483.3 18.23   6.0     0     0  2217   202  1.22  0.84  65.9  59.8 11.44  0.00  0.00  0.00  0.00  0.00  0.00   2.0  0.00  0.00  0.00  0.00
 2023  43   164    81  15.7  -6.0 38.69 15.97  1.00  2.88 238.3  7.72 1.418  9.14  7481     9  1034  6438  3831  2607     0  0.00     0     0   373     0 491.8 19.03   5.8     0     0  2169   202  1.22  0.84  62.6  19.4  3.65  0.00  0.00  0.00  0.00  0.00  0.00   2.0  0.00  0.00  0.00  0.00
 2023  44   165    82  13.9  -6.0 39.41 16.13  1.00  2.88 160.8  7.83 1.451  9.28  7624     9  1049  6567  3884  2683     0  0.00     0     0   363     0 499.4 19.74   5.5     0     0  2127   201  1.22  0.85  60.6  29.2  4.68  0.00  0.00  0.00  0.00  0.00  0.00   2.0  0.00  0.00  0.00  0.00
 2023  45   166    83  13.7  -6.0 40.13 16.29  1.00  2.88 239.8  7.96 1.497  9.46  7841     9  1070  6762  3968  2794     0  0.00     0     0   364     0 507.0 20.46   5.4     0     0  2088   201  1.22  0.85  57.4  18.4  2.74  0.00  0.00  0.00  0.00  0.00  0.00   2.0  0.00  0.00  0.00  0.00
 2023  46   167    84  14.2  -6.0 40.95 16.29  1.00  2.88 247.0  7.87 1.524  9.39  8072     9  1091  6973  4023  2927     0  0.00     0     0   449    22 507.0 21.22   6.5     0     0  2048   196  1.22  0.85  57.8  18.0  2.22  0.00  0.00  0.00  0.00  0.00  0.00   2.0  0.00  0.00  0.00  0.00
 2023  47   168    85  14.1  -6.0 41.78 16.29  1.00  2.88 272.9  7.77 1.554  9.33  8329     9  1114  7206  4000  3162     0  0.00     0     0   541    44 507.0 21.99   7.6     0     0  2010   194  1.22  0.85  54.3  15.3  2.64  0.00  0.00  0.00  0.00  0.00  0.00   2.0  0.00  0.00  0.00  0.00
 2023  48   169    86  12.8  -6.0 42.52 16.29  1.00  2.88 196.7  7.69 1.575  9.26  8513     9  1130  7375  3979  3331     0  0.00     0     0   612    65 507.0 22.71   8.4     0     0  1976   193  1.22  0.86  98.4  39.0  2.74  0.00  0.00  0.00  0.00  0.00  0.00   2.0  0.00  0.00  0.00  0.00
 2023  49   170    87  17.4  -6.0 43.53 16.29  1.00  2.88 175.2  7.57 1.588  9.16  8678     9  1144  7526  3946  3487     0  0.00     0     0   685    92 507.0 23.69   9.2     0     0  1931   192  1.21  0.86 104.8  43.1 12.09  0.00  0.00  0.00  0.00  0.00  0.00   2.0  0.00  0.00  0.00  0.00
 2023  50   171    88  18.8  -6.0 44.62 16.29  1.00  2.88 153.6  7.45 1.598  9.05  8822     9  1155  7659  3913  3624     0  0.00     0     0   755   122 507.0 24.76  10.0     0     0  1884   190  1.21  0.87  91.8  41.8 14.92  0.00  0.00  0.00  0.00  0.00  0.00   2.0  0.00  0.00  0.00  0.00
 2023  51   172    89  18.3  -6.0 45.69 16.29  1.00  2.88 189.5  7.33 1.613  8.94  9001     9  1168  7825  3881  3792     0  0.00     0     0   834   151 507.0 25.82  10.9     0     0  1840   189  1.21  0.87  85.6  31.8 12.60  0.00  0.00  0.00  0.00  0.00  0.00   2.0  0.00  0.00  0.00  0.00
 2023  52   173    90  16.3  -6.0 46.64 16.29  1.00  2.88 175.1  7.22 1.628  8.85  9167     9  1180  7978  3854  3947     0  0.00     0     0   906   177 507.0 26.77  11.6     0     0  1802   187  1.21  0.88  83.6  35.4 14.55  0.00  0.00  0.00  0.00  0.00  0.00   2.0  0.00  0.00  0.00  0.00
 2023  53   174    91  15.3  -6.0 47.53 16.29  1.00  2.88 288.4  7.12 1.661  8.79  9441     9  1199  8233  3827  4204     0  0.00     0     0  1007   202 507.0 27.68  12.5     0     0  1767   186  1.21  0.88  79.8  20.9  9.10  0.00  0.00  0.00  0.00  0.00  0.00   2.0  0.00  0.00  0.00  0.00
 2023  54   175    92  16.1  -6.0 48.47 16.29  1.00  2.88 289.8  7.02 1.694  8.71  9717     9  1218  8490  3797  4465     0  0.00     0     0  1110   228 507.0 28.65  13.4     0     0  1731   185  1.21  0.89  75.8  19.1  8.54  0.00  0.00  0.00  0.00  0.00  0.00   2.0  0.00  0.00  0.00  0.00
 2023  55   176    93  13.1  -6.0 49.23 16.29  1.00  2.88 186.5  6.94 1.714  8.65  9894     9  1229  8657  3775  4557     0  0.00    76    76  1182   249 507.0 29.45  14.1     0     0  1704   184  1.21  0.89  73.4  30.7 11.29  0.00  0.00  0.00  0.00  0.00  0.00   2.0  0.00  0.00  0.00  0.00
 2023  56   177    94  15.6  -6.0 50.49 16.29  1.00  2.88 183.6  6.84 1.731  8.57 10069     9  1240  8821  3744  4637     0  0.00   166   151  1257   275 507.0 30.41  14.7     0     0  1671   183  1.21  0.90  70.9  28.6  9.49  0.00  0.00  0.00  0.00  0.00  0.00   2.0  0.00  0.00  0.00  0.00
 2023  57   178    95  17.0  -6.0 53.88 16.29  1.00  2.88 298.2  6.75 1.759  8.51 10355     9  1256  9090  3722  4766     0  0.00   307   273  1358   295 507.0 31.46  15.4     0     0  1637   181  1.21  0.90  66.8  16.2  5.01  0.00  0.00  0.00  0.00  0.00  0.00   2.0  0.00  0.00  0.00  0.00
 2023  58   179    96  16.0  -6.0 57.08 16.29  1.00  2.88 298.1  6.67 1.789  8.46 10642     9  1270  9364  3703  4883     0  0.00   463   397  1459   315 507.0 32.46  16.1     0     0  1606   180  1.21  0.92  62.7  15.4  4.13  0.00  0.00  0.00  0.00  0.00  0.00   2.0  0.00  0.00  0.00  0.00
 2023  59   180    97  16.1  -6.0 60.74 16.29  1.00  2.88 263.7  6.59 1.815  8.41 10897     9  1280  9609  3683  4982     0  0.00   610   509  1553   334 507.0 33.49  16.7     0     0  1576   179  1.21  0.93  59.0  16.3  3.64  0.00  0.00  0.00  0.00  0.00  0.00   2.0  0.00  0.00  0.00  0.00
 2023  60   181    98  12.6  -6.0 67.07 16.29  1.00  2.88  90.3  6.28 1.816  8.09 10985     9  1282  9695  3528  5027     0  0.00   700   548  1683   440 507.0 34.30  18.2     0     0  1554   178  1.21  0.95  57.9  51.3  9.19  0.00  0.00  0.00  0.00  0.00  0.00   2.0  0.00  0.00  0.00  0.00
 2023  61   182    99  14.6  -6.0 70.68 16.29  0.99  2.88 309.1  6.03 1.853  7.88 11288     9  1289  9991  3405  5195     0  0.00   868   683  1855   523 507.0 35.23  19.6     0     0  1528   177  1.21  0.96  53.9  13.4  2.39  0.00  0.00  0.00  0.00  0.00  0.00   2.0  0.00  0.00  0.00  0.00
 2023  62   183   100  14.9  -6.0 71.82 16.29  0.99  2.88 315.9  5.74 1.891  7.63 11599     9  1293 10298  3262  5329    11  0.00  1078   833  2033   619 507.0 36.19  21.0 16853 .0001  1502   176  1.21  0.97  49.6  11.8  1.78  0.00  0.00  0.00  0.00  0.00  0.00   2.0  0.00  0.00  0.00  0.00
 2023  63   184   101  14.5  -6.0 72.93 16.29  0.99  2.88 316.8  5.45 1.876  7.32 11913     9  1296 10608  3114  5513    38  0.00  1225   860  2415   718 507.0 37.13  24.5 16853 .0002  1478   175  1.21  0.98  45.4  10.7  1.34  0.00  0.00  0.00  0.00  0.00  0.00   2.0  0.00  0.00  0.00  0.00
 2023  64   185   102  15.5  -6.0 74.13 16.29  0.99  2.81 313.3  5.16 1.861  7.02 12222     9  1299 10915  2970  5730    88  0.01  1313   910  2767   813 507.0 38.13  27.6 16853 .0005  1453   174  1.21  0.98  41.0   9.4  0.98  0.04  0.02  0.25  0.00  0.00  0.00   2.0  0.00  0.00  0.00  0.00
 2023  65   186   103  16.9  -6.0 75.43 16.29  0.98  2.16 231.4  4.86 1.844  6.70 12451     9  1300 11142  2815  5864   168  0.02  1379   990  3018   917 507.0 39.23  30.0 16853 .0010  1427   173  1.21  0.98  37.7   8.8  0.75  0.50  0.25  0.42  0.00  0.00  0.00   2.0  0.00  0.00  0.00  0.00
 2023  66   187   104  16.9  -6.0 76.72 16.29  0.98  2.25 187.5  4.53 1.828  6.36 12636     9  1302 11326  2643  5950   272  0.02  1431  1094  3210  1030 507.0 40.33  32.0 16853 .0016  1401   172  1.21  0.98  87.5  26.4  0.78  0.43  0.22  0.40  0.00  0.00  0.00   2.0  0.00  0.00  0.00  0.00
 2023  67   188   105  18.4  -6.0 78.14 16.29  0.97  2.88 278.7  4.21 1.810  6.02 12911     9  1304 11599  2470  6077   413  0.04  1496  1235  3455  1142 507.0 41.52  34.4 16853 .0025  1374   170  1.21  0.98  83.4  21.0  5.90  0.00  0.00  0.00  0.00  0.00  0.00   2.0  0.00  0.00  0.00  0.00
 2023  68   189   106  19.7  -6.0 79.65 16.29  0.96  2.88 301.9  3.85 1.792  5.65 13209     9  1306 11894  2279  6192   596  0.05  1561  1418  3692  1266 507.0 42.81  36.8 16853 .0035  1346   169  1.21  0.98  78.8  17.9  7.80  0.00  0.00  0.00  0.00  0.00  0.00   2.0  0.00  0.00  0.00  0.00
 2023  69   190   107  19.4  -6.0 80.24 16.29  0.95  2.88 311.3  3.48 1.774  5.25 13517     9  1309 12200  2073  6294   810  0.07  1623  1632  3916  1400 507.0 44.07  39.2 16853 .0048  1319   168  1.21  0.98  74.0  16.5  7.73  0.00  0.00  0.00  0.00  0.00  0.00   2.0  0.00  0.00  0.00  0.00
 2023  70   191   108  19.6  -6.0 80.55 16.29  0.94  2.88 302.6  3.29 1.756  5.05 13816     9  1311 12496  1978  6360  1037  0.08  1658  1860  4048  1462 507.0 45.36  40.5 16853 .0062  1293   167  1.21  0.98  69.3  15.9  6.91  0.00  0.00  0.00  0.00  0.00  0.00   2.0  0.00  0.00  0.00  0.00
 2023  71   192   109  22.8  -6.0 80.91 16.29  0.93  2.88 298.5  3.17 1.736  4.90 14110     9  1313 12789  1916  6390  1301  0.10  1677  2123  4120  1505 507.0 46.85  41.3 16853 .0077  1264   165  1.21  0.98  64.3  14.2  4.75  0.00  0.00  0.00  0.00  0.00  0.00   2.0  0.00  0.18  0.00  0.00
 2023  72   193   110  22.0  -6.0 81.26 16.29  0.92  2.88 302.9  3.02 1.717  4.74 14409     9  1315 13086  1843  6432  1555  0.12  1701  2378  4212  1555 507.0 48.30  42.2 16853 .0092  1237   164  1.21  0.98  59.3  13.2  3.59  0.00  0.00  0.00  0.00  0.00  0.00   2.0  0.00  0.13  0.00  0.00
 2023  73   194   111  19.8  -6.0 81.58 16.29  0.91  2.88 308.0  2.88 1.700  4.58 14713     9  1318 13387  1771  6497  1785  0.13  1732  2607  4332  1603 507.0 49.60  43.3 16853 .0106  1214   163  1.21  0.98  54.3  12.4  2.67  0.00  0.00  0.00  0.00  0.00  0.00   2.0  0.00  0.00  0.00  0.00
 2023  74   195   112  19.5  -6.0 81.88 16.29  0.90  2.88 268.0  2.75 1.684  4.44 14978     9  1319 13650  1706  6535  2010  0.15  1753  2832  4413  1646 507.0 50.88  44.2 16853 .0119  1192   161  1.21  0.98  50.0  13.2  2.23  0.00  0.00  0.00  0.00  0.00  0.00   2.0  0.00  0.00  0.00  0.00
 2023  75   196   113  20.5  -6.0 82.21 16.29  0.89  2.88 243.1  2.63 1.668  4.30 15218     9  1321 13888  1641  6545  2247  0.16  1766  3070  4457  1689 507.0 52.23  44.8 16853 .0133  1170   160  1.21  0.98  46.3  13.4  1.85  0.00  0.00  0.00  0.00  0.00  0.00   2.0  0.00  0.03  0.00  0.00
 2023  76   197   114  20.0  -6.0 82.53 16.29  0.88  2.88 102.8  2.50 1.652  4.15 15318     9  1321 13989  1572  6455  2479  0.18  1749  3302  4371  1735 507.0 53.56  44.7 16853 .0147  1149   159  1.21  0.98  99.2  69.8  3.51  0.00  0.00  0.00  0.00  0.00  0.00   2.0  0.00  0.00  0.00  0.00
 2023  77   198   115  19.0  -6.0 82.83 16.29  0.87  2.88 276.1  2.38 1.637  4.01 15591     9  1323 14259  1503  6503  2700  0.19  1774  3522  4466  1779 507.0 54.81  45.7 16853 .0160  1129   158  1.20  0.98 117.9  30.9  8.22  0.00  0.00  0.00  0.00  0.00  0.00   2.0  0.00  0.00  0.00  0.00
 2023  78   199   116  19.0  -6.0 83.13 16.29  0.85  2.88 285.7  2.26 1.622  3.88 15873     9  1325 14539  1438  6559  2920  0.20  1801  3743  4568  1822 507.0 56.07  46.6 16853 .0173  1111   157  1.20  0.98 101.2  25.6  9.50  0.00  0.00  0.00  0.00  0.00  0.00   2.0  0.00  0.00  0.00  0.00
 2023  79   200   117  19.0  -6.0 83.44 16.29  0.84  2.88 278.6  2.14 1.608  3.75 16148     9  1327 14812  1371  6609  3141  0.21  1827  3963  4663  1864 507.0 57.34  47.5 16853 .0186  1093   156  1.20  0.98  86.9  22.8  9.44  0.00  0.00  0.00  0.00  0.00  0.00   2.0  0.00  0.00  0.00  0.00
 2023  80   201   118  20.1  -6.0 83.76 16.29  0.82  2.88 271.1  2.02 1.593  3.62 16416     9  1329 15078  1304  6645  3374  0.22  1848  4196  4738  1907 507.0 58.67  48.4 16853 .0200  1075   155  1.20  0.98  81.3  21.9 10.03  0.00  0.00  0.00  0.00  0.00  0.00   2.0  0.00  0.01  0.00  0.00
 2023  81   202   119  20.2  -6.0 84.08 16.29  0.80  2.88 265.6  1.90 1.579  3.48 16678     9  1331 15338  1233  6677  3608  0.24  1868  4430  4810  1952 507.0 60.02  49.2 16853 .0214  1057   154  1.20  0.98  76.5  20.6  9.64  0.00  0.00  0.00  0.00  0.00  0.00   2.0  0.00  0.02  0.00  0.00
 2023  82   203   120  19.6  -6.0 84.39 16.29  0.78  2.88 269.5  1.77 1.565  3.34 16944     9  1333 15602  1160  6717  3835  0.25  1892  4657  4892  1998 507.0 61.32  50.1 16853 .0228  1041   153  1.20  0.98  72.2  19.6  8.92  0.00  0.00  0.00  0.00  0.00  0.00   2.0  0.00  0.00  0.00  0.00
 2023  83   204   121  17.6  -6.0 84.67 16.29  0.76  2.88 280.0  1.66 1.553  3.21 17220     9  1335 15877  1089  6783  4039  0.25  1923  4861  5008  2043 507.0 62.49  51.1 16853 .0240  1026   152  1.20  0.98  68.5  18.7  7.35  0.00  0.00  0.00  0.00  0.00  0.00   2.0  0.00  0.00  0.00  0.00
 2023  84   205   122  17.1  -6.0 84.94 16.29  0.73  2.88 260.6  1.55 1.541  3.09 17478     9  1337 16132  1024  6839  4237  0.26  1950  5059  5105  2083 507.0 63.64  52.0 16853 .0251  1013   151  1.20  0.98  65.0  19.4  6.34  0.00  0.00  0.00  0.00  0.00  0.00   2.0  0.00  0.00  0.00  0.00
 2023  85   206   123  17.5  -6.0 85.22 16.29  0.71  2.88 254.7  1.44 1.530  2.97 17729     9  1339 16382   961  6886  4439  0.27  1974  5262  5191  2122 507.0 64.81  52.9 16853 .0263  1000   150  1.20  0.98  61.6  18.6  5.29  0.00  0.00  0.00  0.00  0.00  0.00   2.0  0.00  0.00  0.00  0.00
 2023  86   207   124  17.5  -6.0 85.50 16.29  0.68  2.88 191.2  1.34 1.518  2.86 17918     9  1340 16569   896  6885  4643  0.28  1984  5465  5215  2162 507.0 65.98  53.4 16853 .0275   987   150  1.20  0.98  59.1  23.8  5.97  0.00  0.00  0.00  0.00  0.00  0.00   2.0  0.00  0.00  0.00  0.00
 2023  87   208   125  18.8  -6.0 85.80 16.29  0.65  2.88 220.9  1.23 1.506  2.74 18136     9  1342 16786   830  6897  4860  0.29  1997  5682  5255  2202 507.0 67.24  54.0 16853 .0288   974   149  1.20  0.98  56.1  19.1  4.29  0.00  0.00  0.00  0.00  0.00  0.00   2.0  0.00  0.00  0.00  0.00
 2023  88   209   126  18.0  -6.0 86.08 16.29  0.61  2.88 218.6  1.12 1.495  2.62 18351     9  1343 17000   759  6915  5068  0.30  2014  5890  5304  2245 507.0 68.44  54.8 16853 .0301   962   148  1.20  0.98  53.1  18.6  3.53  0.00  0.00  0.00  0.00  0.00  0.00   2.0  0.00  0.00  0.00  0.00
 2023  89   210   127  19.3  -6.0 86.39 16.29  0.58  2.88 204.1  1.01 1.483  2.50 18553     9  1344 17200   690  6910  5292  0.31  2022  6114  5322  2287 507.0 69.74  55.3 16853 .0314   949   147  1.20  0.98  50.4  18.6  3.03  0.00  0.00  0.00  0.00  0.00  0.00   2.0  0.00  0.00  0.00  0.00
 2023  90   211   128  18.7  -6.0 86.69 16.29  0.53  2.88 211.8  0.90 1.471  2.37 18761     9  1345 17408   615  6917  5508  0.32  2036  6330  5358  2331 507.0 71.00  56.0 16853 .0327   937   146  1.20  0.98  47.5  17.3  2.46  0.00  0.00  0.00  0.00  0.00  0.00   2.0  0.00  0.00  0.00  0.00
 2023  91   212   129  19.4  -6.0 86.99 16.29  0.49  2.88 190.5  0.79 1.460  2.25 18949     9  1346 17594   542  6903  5732  0.33  2043  6554  5364  2375 507.0 72.30  56.5 16853 .0340   925   145  1.20  0.98  45.0  17.9  2.22  0.00  0.00  0.00  0.00  0.00  0.00   2.0  0.00  0.00  0.00  0.00
 2023  92   213   130  20.8  -6.0 87.33 16.29  0.44  2.88 169.8  0.67 1.447  2.12 19116     9  1347 17761   466  6860  5974  0.34  2041  6796  5334  2420 507.0 73.70  56.9 16853 .0354   912   144  1.20  0.98  42.6  18.6  2.04  0.00  0.00  0.00  0.00  0.00  0.00   1.6  0.00  0.06  0.00  0.00
 2023  93   214   131  18.6  -6.0 87.62 16.29  0.37  2.88 144.7  0.55 1.437  1.99 19258     9  1347 17902   383  6820  6189  0.35  2041  7012  5309  2469 507.0 74.96  57.4 16853 .0367   901   143  1.20  0.98  40.7  21.8  2.13  0.00  0.00  0.00  0.00  0.00  0.00   1.7  0.00  0.00  0.00  0.00
 2023  94   215   132  17.1  -6.0 87.89 16.29  0.31  2.88 136.4  0.44 1.427  1.87 19393     9  1348 18036   308  6786  6387  0.35  2042  7210  5288  2512 507.0 76.11  57.9 16853 .0379   891   143  1.20  0.98  39.0  23.3  2.09  0.00  0.00  0.00  0.00  0.00  0.00   1.7  0.00  0.00  0.00  0.00
 2023  95   216   133  15.9  -6.0 88.15 16.29  0.25  2.88 112.2  0.34 1.418  1.76 19503     9  1348 18146   239  6745  6569  0.36  2040  7392  5256  2552 507.0 77.18  58.2 16853 .0390   882   142  1.20  0.98  37.6  28.2  2.33  0.00  0.00  0.00  0.00  0.00  0.00   1.6  0.00  0.00  0.00  0.00
 2023  96   217   134  15.9  -6.0 88.40 16.29  0.19  2.88  94.4  0.25 1.406  1.65 19595     9  1348 18239   175  6670  6752  0.37  2038  7574  5203  2604 507.0 78.25  58.6 16853 .0401   873   141  1.20  0.98  36.5  32.1  2.49  0.00  0.00  0.00  0.00  0.00  0.00   1.5  0.00  0.00  0.00  0.00
 2023  97   218   135  17.3  -6.0 88.67 16.29  0.12  2.88  71.2  0.15 1.393  1.55 19665     9  1348 18308   109  6562  6952  0.38  2027  7775  5110  2658 507.0 79.42  58.8 16853 .0413   864   140  1.20  0.98  35.6  40.5  2.98  0.00  0.00  0.00  0.00  0.00  0.00   1.2  0.00  0.00  0.00  0.00
 2023  98   219   136  19.2  -6.0 88.98 16.29  0.04  2.88  46.6  0.05 1.378  1.43 19710     9  1347 18354    38  6419  7175  0.39  2006  7997  4975  2717 507.0 80.71  58.8 16853 .0426   854   139  1.20  0.98  34.9  58.6  4.12  0.00  0.00  0.00  0.00  0.00  0.00   1.0  0.00  0.00  0.00  0.00
 2023  99   220   137  20.0  -6.0 89.30 16.29  0.00  2.88  16.7  0.00 1.363  1.36 19725     9  1346 18370     0  6238  7406  0.40  1969  8229  4781  2756 507.0 82.06  58.2 16853 .0439   843   -99  1.20  0.98  34.7  99.9 10.85  0.00  0.00  0.00  0.00  0.00  0.00   0.9  0.00  0.00  0.00  0.00
 2023 100   221   138  19.5  -6.0 89.61 16.29  0.00  0.00   0.0  0.00 1.349  1.35 19724     9  1345 18370     0  6043  7632  0.42  1921  8454  4555  2774 507.0 83.37  57.2 16853 .0453   833   -99  1.20  0.98  34.6  99.9 10.85  0.00  0.00  0.00  0.00  0.00  0.00   0.8  0.00  0.00  0.00  0.00
 2023 101   222   139  21.5  -6.0 89.95 16.29  0.00  0.00   0.0  0.00 1.333  1.33 19722     9  1343 18370     0  5829  7882  0.43  1867  8704  4306  2793 507.0 84.82  55.9 16853 .0468   822   -99  1.20  0.98  34.6  99.9 10.85  0.00  0.00  0.00  0.00  0.00  0.00   0.7  0.00  0.10  0.00  0.00
 2023 102   223   140  20.7  -6.0 90.87 16.29  0.00  0.00   0.0  0.00 1.319  1.32 19721     9  1342 18370     0  5775  7921  0.43  1863  8743  4266  2812 507.0 86.21  55.9 16853 .0470   811   -99  1.20  0.98  34.6  99.9 10.85  0.00  0.00  0.00  0.00  0.00  0.00   0.7  0.00  0.04  0.00  0.00

*DSSAT Cropping System Model Ver. 4.8.2.000 -release  APR 06, 2025 18:58:49

*RUN   2        : WW23_G-2                  CSCER048 CIOB2301    2
 MODEL          : CSCER048 - Wheat
 EXPERIMENT     : CIOB2301 WH ROOTS ANATOMY
 DATA PATH      : C:\DSSAT48\Wheat\
 TREATMENT  2   : WW23_G-2                  CSCER048
  
@YEAR DOY   DAS   DAP TMEAN TKILL  GSTD  L#SD PARID PARUD  AWAD  LAID  SAID  CAID  TWAD SDWAD  RWAD  CWAD  LWAD  SWAD  HWAD  HIAD CHWAD  EWAD RSWAD SNWPD SNWLD SNWSD  RS%D  H#AD  HWUD  T#AD  SLAD  RDPD  PTFD  SWXD WAVRD WUPRD  WFTD  WFPD  WFGD  NFTD  NFPD  NFGD NUPRD  TFPD  TFGD VRNFD DYLFD
 2022 327    83     0  17.6  -6.0  0.00  0.00  0.00  0.00   0.0  0.00 0.000  0.00    43    43     0     0     0     0     0  0.00     0     0     0     0     0     0   0.0     0     0   150   -99  0.04  0.98  19.7  99.9  1.00  0.00  0.00  0.00  0.00  0.00  0.00   0.0  0.00  0.00  0.50  0.00
 2022 328    84     1  16.4  -6.0  5.84  0.00  0.00  0.00   0.0  0.00 0.000  0.00    43    43     0     0     0     0     0  0.00     0     0     0     0     0     0   0.0     0     0   150   -99  0.04  0.98   7.2  99.9  1.00  0.00  0.00  0.00  0.00  0.00  0.00   0.0  0.00  0.00  0.50  0.00
 2022 329    85     2  17.4  -6.0  8.40  0.00  0.00  0.00   0.0  0.00 0.000  0.00    43    41     1     0     0     0     0  0.00     0     0     0     0     0     0   0.0     0     0   150   -99  0.07  0.98   4.4  99.9  1.00  0.00  0.00  0.00  0.00  0.00  0.00   0.0  0.00  0.00  0.50  0.00
 2022 330    86     3  18.0  -6.0 10.00  0.00  0.00  0.00   0.0  0.00 0.000  0.00    43    40     3     0     0     0     0  0.00     0     0     0     0     0 .0012   0.0     0     0   150   -99  0.09  0.98   3.8  99.9  1.00  0.00  0.00  0.00  0.00  0.00  0.00   2.0  0.00  0.00  0.50  0.00
 2022 331    87     4  16.3  -6.0 10.38  0.38  0.01  0.00   0.0  0.02 0.002  0.02    43    30     4     8     6     3     0  0.00     0     0     0     0     0 .0034   0.0     0     0   150   300  0.12  0.75   4.0  99.9  1.00  0.00  0.00  0.00  0.00  0.00  0.00   0.1  0.00  0.00  0.50  0.38
 2022 332    88     5  16.1  -6.0 10.75  0.75  0.02  1.41   1.6  0.02 0.003  0.03    44    26     5    13     8     5     0  0.00     0     0     1     0 .0849 .0066   9.6     0     0   150   297  0.14  0.71   4.3  99.7  0.49  1.00  0.51  0.62  0.00  0.00  0.00   0.3  0.00  0.00  0.50  0.38
 2022 333    89     6  18.1  -6.0 11.18  1.18  0.03  1.41   2.2  0.03 0.003  0.03    46    21     7    18    10     8     0  0.00     0     0     3     0 0.200 .0113  16.0     0     0   150   297  0.17  0.71   5.8  97.3  0.50  1.00  0.50  0.62  0.01  0.01  0.01   0.3  0.00  0.00  0.50  0.38
 2022 334    90     7  18.5  -6.0 11.61  1.61  0.03  1.49   2.9  0.04 0.005  0.04    48    16     8    25    13    12     0  0.00     0     0     5     0 0.349 .0173  20.8     0     0   150   295  0.20  0.72   7.3  96.6  0.57  0.85  0.43  0.56  0.10  0.10  0.10   0.3  0.00  0.00  0.50  0.39
 2022 335    91     8  19.2  -6.0 12.03  2.03  0.04  1.22   3.1  0.05 0.005  0.05    51    11     9    30    16    14     0  0.00     0     0     6     0 0.541 .0250  21.2     0     0   150   294  0.23  0.72   9.0  90.0  0.57  0.86  0.43  0.56  0.26  0.26  0.26   0.4  0.00  0.00  0.50  0.39
 2022 336    92     9  23.0  -6.0 12.29  2.29  0.04  1.11   3.3  0.05 0.006  0.06    53     9    11    34    17    17     0  0.00     0     0     8     0 0.774 .0359  23.7     0     0   150   293  0.26  0.72  11.0  89.0  0.57  0.86  0.43  0.56  0.32  0.32  0.32   1.0  0.00  0.20  0.50  0.39
 2022 337    93    10  23.0  -6.0 12.56  2.56  0.05  1.37   4.0  0.06 0.007  0.06    57     9    11    37    19    18     0  0.00     0     0     8     0 0.774 .0480  22.6     0     0   150   291  0.29  0.73  13.0  99.9  0.66  0.68  0.34  0.49  0.28  0.28  0.28   1.1  0.00  0.20  0.50  0.39
 2022 338    94    11  22.0  -6.0 12.82  2.82  0.05  1.48   4.5  0.06 0.007  0.07    61     9    12    40    21    19     0  0.00     0     0     9     0 0.774 .0604  21.5     0     0   150   290  0.33  0.73  14.8  99.9  0.67  0.66  0.33  0.48  0.24  0.24  0.24   1.0  0.00  0.13  0.50  0.39
 2022 339    95    12  22.2  -6.0 13.08  3.08  0.06  2.30   3.2  0.07 0.008  0.08    64     9    13    43    23    19     0  0.00     0     0     8     0 0.774 .0739  18.4     0     0   150   289  0.36  0.74  17.3  99.9  1.62  0.00  0.00  0.00  0.20  0.20  0.20   1.1  0.00  0.15  0.50  0.39
 2022 340    96    13  19.7  -6.0 13.30  3.30  0.06  2.39   2.6  0.07 0.009  0.08    66     9    13    45    25    19     0  0.00     0     0     7     0 0.774 .0862  15.9     0     0   179   288  0.38  0.75  21.0  99.9  2.23  0.00  0.00  0.00  0.17  0.17  0.17   1.4  0.00  0.00  0.50  0.39
 2022 341    97    14  20.0  -6.0 13.54  3.54  0.07  2.46   4.8  0.08 0.010  0.09    70     9    14    48    28    20     0  0.00     0     0     6     0 0.774 0.099  13.3     0     0   208   286  0.40  0.75  21.6  99.9  1.37  0.00  0.00  0.00  0.15  0.15  0.15   1.1  0.00  0.00  0.50  0.39
 2022 342    98    15  20.8  -6.0 13.78  3.78  0.07  1.54   6.9  0.09 0.011  0.10    76     9    15    53    31    22     0  0.00     0     0     7     0 0.774 0.113  13.9     0     0   216   285  0.42  0.73  22.4  99.9  0.61  0.78  0.39  0.53  0.12  0.12  0.12   1.1  0.00  0.05  0.50  0.39
 2022 343    99    16  18.0  -6.0 13.99  3.99  0.08  1.51   8.2  0.09 0.011  0.10    83     9    16    59    32    26     0  0.00     0     0    10     0 1.221 0.127  17.2     0     0   222   284  0.44  0.72  23.7  99.9  0.59  0.83  0.41  0.55  0.10  0.10  0.10   1.4  0.00  0.00  0.50  0.39
 2022 344   100    17  17.0  -6.0 14.19  4.19  0.08  1.58   9.5  0.10 0.012  0.11    92     9    18    66    35    31     0  0.00     0     0    13     0 1.221 0.140  20.1     0     0   228   283  0.45  0.73  24.8  99.9  0.60  0.80  0.40  0.54  0.09  0.09  0.09   1.8  0.00  0.00  0.50  0.39
 2022 345   101    18  16.2  -6.0 14.37  4.37  0.08  1.77  11.0  0.10 0.013  0.11   100     9    19    72    36    36     0  0.00     0     0    18     0 2.561 0.155  25.4     0     0   237   282  0.47  0.73  25.9  99.9  0.67  0.67  0.33  0.49  0.07  0.07  0.07   1.5  0.00  0.00  0.50  0.39
 2022 346   102    19  16.1  -6.0 14.56  4.56  0.09  1.98  12.7  0.10 0.013  0.12   110     9    21    80    37    43     0  0.00     0     0    24     0 3.901 0.170  30.2     0     0   250   281  0.48  0.74  26.8  99.9  0.73  0.53  0.27  0.44  0.06  0.06  0.06   2.0  0.00  0.00  0.50  0.39
 2022 347   103    20  15.1  -6.0 14.74  4.74  0.09  2.37  15.0  0.11 0.014  0.12   123     9    24    91    39    51     0  0.00     0     0    31     0 5.160 0.186  34.5     0     0   270   279  0.50  0.76  74.3  99.9  0.87  0.26  0.13  0.33  0.05  0.05  0.05   2.0  0.00  0.00  0.50  0.39
 2022 348   104    21  15.2  -6.0 14.91  4.91  0.10  2.76  19.5  0.12 0.015  0.14   139     9    26   104    43    61     0  0.00     0     0    39     0 6.431 0.204  37.1     0     0   295   278  0.51  0.77  57.4  99.9  2.56  0.00  0.00  0.00  0.04  0.04  0.04   2.0  0.00  0.00  0.50  0.40
 2022 349   105    22  14.6  -6.0 21.13  5.08  0.11  2.78  20.9  0.13 0.017  0.15   157     9    29   120    48    71     0  0.00     0     0    46     0 7.126 0.224  38.5     0     0   320   276  0.53  0.77  42.1  99.9  2.82  0.00  0.00  0.00  0.03  0.03  0.03   2.0  0.00  0.00  0.50  0.40
 2022 350   106    23  12.5  -6.0 21.27  5.23  0.12  2.81  13.0  0.15 0.020  0.17   168     9    31   129    56    73     0  0.00     0     0    45     0 7.903 0.242  34.7     0     0   341   274  0.54  0.77  35.9  99.9  3.77  0.00  0.00  0.00  0.02  0.02  0.02   1.5  0.00  0.00  0.48  0.40
 2022 351   107    24  14.9  -6.0 21.45  5.40  0.14  2.83  25.2  0.17 0.023  0.20   190     9    34   147    64    83     0  0.00     0     0    50     0 8.838 0.265  33.9     0     0   367   272  0.55  0.77  33.9  99.9  1.97  0.00  0.00  0.00  0.02  0.02  0.02   1.1  0.00  0.00  0.48  0.40
 2022 352   108    25  15.5  -6.0 21.62  5.58  0.15  2.84  28.9  0.20 0.026  0.22   215     9    38   169    73    96     0  0.00     0     0    57     0 9.813 0.292  34.1     0     0   394   270  0.57  0.77  34.4  94.0  1.87  0.00  0.00  0.00  0.01  0.01  0.01   1.2  0.00  0.00  0.48  0.40
 2022 353   109    26  14.8  -6.0 21.79  5.76  0.17  2.86  33.0  0.22 0.029  0.25   244     9    43   193    81   112     0  0.00     0     0    69     0 10.75 0.320  35.7     0     0   419   269  0.58  0.77  34.9  84.7  1.73  0.00  0.00  0.00  0.01  0.01  0.01   1.4  0.00  0.00  0.48  0.40
 2022 354   110    27  16.6  -6.0 21.99  5.95  0.19  2.87  33.4  0.24 0.032  0.28   274     9    47   218    91   127     0  0.00     0     0    79     0 11.80 0.355  36.1     0     0   448   268  0.60  0.77  35.5  83.0  1.75  0.00  0.00  0.00  0.00  0.00  0.00   1.4  0.00  0.00  0.48  0.40
 2022 355   111    28  15.2  -6.0 22.16  6.13  0.20  2.88  41.2  0.27 0.036  0.30   310     9    53   249   101   148     0  0.00     0     0    95     0 12.55 0.392  38.1     0     0   475   267  0.61  0.77  35.9  69.7  1.52  0.00  0.00  0.00  0.00  0.00  0.00   1.6  0.00  0.00  0.48  0.40
 2022 356   112    29  15.3  -6.0 22.43  6.30  0.23  2.88  45.5  0.30 0.040  0.34   351     9    59   283   114   169     0  0.00     0     0   109     0 13.54 0.432  38.4     0     0   515   265  0.63  0.77  36.2  63.5  1.46  0.00  0.00  0.00  0.00  0.00  0.00   1.3  0.00  0.00  0.48  0.40
 2022 357   113    30  15.9  -6.0 22.71  6.49  0.25  2.88  49.7  0.34 0.045  0.38   395     9    66   321   127   193     0  0.00     0     0   125     0 14.58 0.479  39.0     0     0   556   264  0.64  0.78  36.5  57.5  1.40  0.00  0.00  0.00  0.00  0.00  0.00   1.3  0.00  0.00  0.48  0.40
 2022 358   114    31  16.2  -6.0 22.99  6.68  0.27  2.88  54.9  0.37 0.050  0.42   444     9    73   362   141   221     0  0.00     0     0   145     0 15.64 0.533  40.0     0     0   599   262  0.65  0.78  36.7  52.2  1.35  0.00  0.00  0.00  0.00  0.00  0.00   1.4  0.00  0.00  0.48  0.40
 2022 359   115    32  17.8  -6.0 23.30  6.89  0.29  2.88  60.2  0.41 0.056  0.46   497     9    81   408   156   252     0  0.00     0     0   168     0 16.80 0.597  41.1     0     0   645   261  0.67  0.78  36.9  46.2  1.26  0.00  0.00  0.03  0.00  0.00  0.00   1.4  0.00  0.00  0.49  0.40
 2022 360   116    33  17.0  -6.0 23.60  7.08  0.32  2.88  66.1  0.45 0.062  0.51   556     9    90   458   173   285     0  0.00     0     0   191     0 17.92 0.666  41.7     0     0   690   260  0.68  0.78  37.0  42.9  1.25  0.00  0.00  0.04  0.00  0.00  0.00   1.4  0.00  0.00  0.49  0.40
 2022 361   117    34  17.5  -6.0 23.90  7.29  0.34  2.88  70.9  0.49 0.068  0.56   619     9    99   512   191   321     0  0.00     0     0   217     0 19.55 0.745  42.4     0     0   736   259  0.70  0.78  37.1  39.6  1.22  0.00  0.00  0.06  0.00  0.00  0.00   1.4  0.00  0.00  0.50  0.40
 2022 362   118    35  16.6  -6.0 24.19  7.48  0.37  2.88  47.8  0.54 0.075  0.61   661     9   105   547   209   339     0  0.00     0     0   225     0 21.10 0.827  41.1     0     0   779   257  0.71  0.78  37.4  61.7  2.00  0.00  0.00  0.00  0.00  0.00  0.00   1.5  0.00  0.00  0.50  0.40
 2022 363   119    36  17.2  -6.0 24.49  7.68  0.39  2.88  22.1  0.59 0.082  0.67   680     9   108   563   231   332     0  0.00     0     0   208     0 22.72 0.918  37.0     0     0   824   256  0.72  0.78  38.4  99.9  4.41  0.00  0.00  0.00  0.00  0.00  0.00   1.4  0.00  0.00  0.50  0.40
 2022 364   120    37  18.6  -6.0 24.82  7.90  0.42  2.88  82.9  0.64 0.090  0.73   753     9   119   626   250   376     0  0.00     0     0   240     0 24.47 1.018  38.4     0     0   873   255  0.74  0.78  38.4  34.8  1.09  0.00  0.00  0.16  0.00  0.00  0.00   1.4  0.00  0.00  0.50  0.40
 2022 365   121    38  17.8  -6.0 25.10  8.10  0.44  2.74  87.8  0.68 0.096  0.78   831     9   131   692   269   423     0  0.00     0     0   277     0 26.15 1.124  40.0     0     0   915   254  0.75  0.78  38.3  31.5  0.95  0.09  0.05  0.27  0.00  0.00  0.00   1.5  0.00  0.00  0.50  0.39
 2023   1   122    39  16.6  -6.0 25.39  8.30  0.47  2.88  84.9  0.74 0.105  0.84   906     9   142   756   293   463     0  0.00     0     0   303     0 29.17 1.233  40.1     0     0   959   253  0.77  0.78  38.2  35.5  1.04  0.00  0.00  0.20  0.00  0.00  0.00   1.2  0.00  0.00  0.50  0.39
 2023   2   123    40  15.1  -6.0 25.66  8.47  0.49  2.88  73.8  0.80 0.114  0.91   970     9   151   811   318   493     0  0.00     0     0   319     0 31.93 1.340  39.3     0     0   998   251  0.78  0.78  38.3  42.2  1.21  0.00  0.00  0.07  0.00  0.00  0.00   1.3  0.00  0.00  0.50  0.39
 2023   3   124    41  13.8  -6.0 25.82  8.63  0.51  2.41  89.8  0.83 0.120  0.95  1049     9   164   877   333   544     0  0.00     0     0   361     0 34.45 1.444  41.2     0     0  1023   251  0.79  0.77  79.5  61.6  0.84  0.32  0.16  0.35  0.00  0.00  0.00   2.0  0.00  0.00  0.49  0.39
 2023   4   125    42  16.3  -6.0 26.10  8.82  0.54  2.88 113.9  0.90 0.131  1.04  1150     9   178   963   363   601     0  0.00     0     0   400     0 37.44 1.578  41.6     0     0  1065   249  0.80  0.78  63.0  41.2  3.14  0.00  0.00  0.00  0.00  0.00  0.00   2.0  0.00  0.00  0.49  0.39
 2023   5   126    43  17.6  -6.0 26.41  9.03  0.57  2.88 124.1  0.99 0.145  1.14  1260     9   194  1057   400   658     0  0.00     0     0   436     0 40.69 1.735  41.2     0     0  1112   248  0.82  0.78  55.9  33.2  3.11  0.00  0.00  0.00  0.00  0.00  0.00   2.0  0.00  0.00  0.50  0.39
 2023   6   127    44  18.3  -6.0 26.73  9.24  0.60  2.88 129.4  1.09 0.161  1.25  1369     9   211  1150   443   708     0  0.00     0     0   460     0 49.43 1.913  40.0     0     0  1159   246  0.83  0.79  52.8  30.2  2.65  0.00  0.00  0.00  0.00  0.00  0.00   1.7  0.00  0.00  0.50  0.39
 2023   7   128    45  17.7  -6.0 27.04  9.45  0.63  2.88 132.9  1.18 0.176  1.36  1482     9   227  1246   484   762     0  0.00     0     0   490     0 57.95 2.099  39.3     0     0  1206   245  0.85  0.79  51.3  29.1  2.44  0.00  0.00  0.00  0.00  0.00  0.00   1.8  0.00  0.00  0.50  0.39
 2023   8   129    46  17.3  -6.0 27.34  9.65  0.67  2.88 139.6  1.29 0.193  1.48  1601     9   245  1348   529   818     0  0.00     0     0   520     0 66.31 2.296  38.6     0     0  1251   243  0.86  0.79  50.4  27.4  2.20  0.00  0.00  0.00  0.00  0.00  0.00   1.6  0.00  0.00  0.50  0.39
 2023   9   130    47  16.6  -6.0 27.63  9.84  0.69  2.88 153.0  1.39 0.209  1.60  1733     9   264  1460   573   887     0  0.00     0     0   562     0 74.41 2.500  38.5     0     0  1295   242  0.88  0.79  49.4  24.7  1.95  0.00  0.00  0.00  0.00  0.00  0.00   1.7  0.00  0.00  0.50  0.39
 2023  10   131    48  17.2  -6.0 27.93 10.04  0.72  2.88 154.2  1.50 0.227  1.72  1866     9   284  1573   621   952     0  0.00     0     0   598     0 82.80 2.727  38.0     0     0  1340   241  0.89  0.79  48.3  23.7  1.88  0.00  0.00  0.00  0.00  0.00  0.00   1.5  0.00  0.00  0.50  0.39
 2023  11   132    49  17.9  -6.0 28.24 10.25  0.75  2.88 168.7  1.63 0.250  1.88  2008     9   305  1694   683  1012     0  0.00     0     0   622     0 95.07 2.981  36.7     0     0  1386   239  0.91  0.79  47.0  20.7  1.54  0.00  0.00  0.00  0.00  0.00  0.00   1.1  0.00  0.00  0.50  0.39
 2023  12   133    50  18.4  -6.0 28.56 10.46  0.78  2.88 176.9  1.78 0.274  2.06  2157     9   327  1821   750  1071     0  0.00     0     0   644     0 107.8 3.262  35.3     0     0  1434   238  0.92  0.79  45.5  19.2  1.33  0.00  0.00  0.00  0.00  0.00  0.00   1.1  0.00  0.00  0.50  0.39
 2023  13   134    51  16.6  -6.0 28.85 10.66  0.80  2.88 181.6  1.90 0.295  2.20  2311     9   350  1953   804  1149     0  0.00     0     0   688     0 119.3 3.534  35.2     0     0  1478   236  0.93  0.79  44.1  18.4  1.19  0.00  0.00  0.08  0.00  0.00  0.00   1.3  0.00  0.00  0.50  0.39
 2023  14   135    52  17.6  -6.0 29.16 10.86  0.82  2.87 184.1  2.00 0.313  2.31  2467     9   372  2086   850  1236     0  0.00     0     0   745     0 131.6 3.843  35.7     0     0  1524   235  0.95  0.79  42.7  17.2  1.00  0.00  0.00  0.23  0.00  0.00  0.00   1.4  0.00  0.00  0.50  0.38
 2023  15   136    53  16.9  -6.0 29.45 11.06  0.84  2.88 129.3  2.16 0.338  2.50  2574     9   388  2177   921  1256     0  0.00     0     0   728     0 143.2 4.156  33.4     0     0  1568   234  0.96  0.79  42.0  25.1  1.27  0.00  0.00  0.02  0.00  0.00  0.00   1.0  0.00  0.00  0.50  0.38
 2023  16   137    54  17.0  -6.0 29.61 11.26  0.85  2.19 147.1  2.25 0.354  2.60  2692     9   408  2275   965  1311     0  0.00     0     0   756     0 158.2 4.485  33.2     0     0  1591   233  0.98  0.77  41.2  16.3  0.76  0.48  0.24  0.41  0.00  0.00  0.00   1.2  0.00  0.00  0.50  0.38
 2023  17   138    55  14.1  -6.0 29.86 11.42  0.87  2.88  58.8  2.39 0.376  2.77  2733     9   415  2309  1031  1279     0  0.00     0     0   695     0 170.8 4.773  30.1     0     0  1628   232  0.99  0.79  41.6  58.0  2.39  0.00  0.00  0.00  0.00  0.00  0.00   1.0  0.00  0.00  0.49  0.38
 2023  18   139    56  13.8  -6.0 29.95 11.58  0.88  2.02 135.0  2.46 0.388  2.84  2843     9   434  2400  1062  1338     0  0.00     0     0   733     0 183.2 5.059  30.6     0     0  1643   231  1.00  0.76  40.8  17.2  0.70  0.60  0.30  0.46  0.00  0.00  0.00   1.8  0.00  0.00  0.48  0.38
 2023  19   140    57  14.2  -6.0 30.00 11.75  0.88  1.81 121.1  2.51 0.399  2.91  2939     9   451  2479  1089  1390     0  0.00     0     0   767     0 195.9 5.369  30.9     0     0  1652   231  1.01  0.76  40.2  16.6  0.63  0.74  0.37  0.52  0.00  0.00  0.00   1.9  0.00  0.00  0.48  0.38
 2023  20   141    58  13.8  -6.0 30.00 11.91  0.88  1.50 112.8  2.50 0.400  2.90  3012     9   468  2536  1088  1448     0  0.00     0     0   818     0 223.6 5.679  32.3     0     0  1654   230  1.02  0.75  96.6  35.6  0.52  0.96  0.48  0.60  0.00  0.00  0.00   2.0  0.00  0.00  0.47  0.38
 2023  21   142    59  14.1  -6.0 30.00 12.07  0.90  2.88 217.8  2.74 0.439  3.18  3212     9   494  2709  1197  1512     0  0.00     0     0   824     0 223.6 6.009  30.4     0     0  1691   229  1.03  0.80  80.6  29.5  5.04  0.00  0.00  0.00  0.00  0.00  0.00   2.0  0.00  0.00  0.46  0.38
 2023  22   143    60  14.1  -6.0 30.00 12.23  0.92  2.88 228.4  2.95 0.476  3.43  3403     9   522  2873  1299  1574     0  0.00     0     0   829     0 242.1 6.356  28.9     0     0  1728   227  1.05  0.80  73.1  25.4  5.04  0.00  0.00  0.00  0.00  0.00  0.00   1.5  0.00  0.00  0.45  0.38
 2023  23   144    61  12.6  -6.0 30.00 12.38  0.93  2.88 196.8  3.14 0.509  3.65  3567     9   546  3013  1390  1623     0  0.00     0     0   828     0 258.8 6.684  27.5     0     0  1760   226  1.06  0.80  71.2  29.9  6.38  0.00  0.00  0.00  0.00  0.00  0.00   2.0  0.00  0.00  0.43  0.37
 2023  24   145    62  13.1  -6.0 30.00 12.53  0.94  2.88 236.8  3.34 0.544  3.88  3767     9   574  3184  1485  1699     0  0.00     0     0   849     0 276.3 7.041  26.7     0     0  1795   225  1.07  0.80  68.8  23.7  4.79  0.00  0.00  0.00  0.00  0.00  0.00   1.9  0.00  0.00  0.42  0.37
 2023  25   146    63  14.5  -6.0 30.00 12.70  0.95  2.88 240.9  3.55 0.583  4.14  3968     9   603  3357  1590  1767     0  0.00     0     0   858     0 295.8 7.457  25.6     0     0  1833   223  1.08  0.80  66.3  21.5  4.01  0.00  0.00  0.00  0.00  0.00  0.00   1.7  0.00  0.00  0.42  0.37
 2023  26   147    64  15.7  -6.0 30.00 12.88  0.96  2.88 224.3  3.80 0.625  4.43  4153     9   629  3515  1710  1805     0  0.00     0     0   833     0 316.9 7.929  23.7     0     0  1874   222  1.09  0.80  64.1  21.9  3.90  0.00  0.00  0.00  0.00  0.00  0.00   1.4  0.00  0.00  0.42  0.37
 2023  27   148    65  12.1  -6.0 30.00 13.02  0.97  2.88 180.9  4.01 0.661  4.67  4303     9   651  3644  1810  1834     0  0.00     0     0   810     0 333.3 8.311  22.2     0     0  1905   221  1.10  0.80  62.5  28.2  4.69  0.00  0.00  0.00  0.00  0.00  0.00   1.8  0.00  0.00  0.39  0.37
 2023  28   149    66  15.6  -6.0 30.00 13.20  0.97  2.88 203.0  4.32 0.713  5.03  4484     9   674  3801  1961  1840     0  0.00     0     0   741     0 337.9 8.818  19.5     0     0  1946   220  1.11  0.80  60.7  22.5  3.44  0.00  0.00  0.00  0.00  0.00  0.00   1.2  0.00  0.00  0.00  0.00
 2023  29   150    67  14.4  -6.0 30.00 13.37  0.98  2.88 248.0  4.65 0.771  5.42  4705     9   703  3993  2127  1866     0  0.00     0     0   684     0 345.0 9.305  17.1     0     0  1984   219  1.13  0.80  58.3  18.0  2.41  0.00  0.00  0.00  0.00  0.00  0.00   1.0  0.00  0.00  0.00  0.00
 2023  30   151    68  14.6  -6.0 30.00 13.54  0.99  2.88 222.8  4.95 0.823  5.77  4903     9   729  4166  2277  1888     0  0.00     0     0   633     0 352.2 9.817  15.2     0     0  2022   217  1.14  0.81  56.2  19.2  2.19  0.00  0.00  0.00  0.00  0.00  0.00   1.2  0.00  0.00  0.00  0.00
 2023  31   152    69  14.5  -6.0 30.00 13.71  0.99  2.88 229.4  5.24 0.875  6.11  5107     9   755  4344  2425  1919     0  0.00     0     0   589     0 359.4 10.35  13.6     0     0  2060   216  1.15  0.81  54.1  18.0  1.81  0.00  0.00  0.00  0.00  0.00  0.00   1.2  0.00  0.00  0.00  0.00
 2023  32   153    70  13.4  -6.0 30.31 13.87  0.99  2.88 171.9  5.46 0.916  6.38  5259     9   774  4477  2543  1934     0  0.00     0     0   546     0 366.0 10.85  12.2     0     0  2095   215  1.16  0.81  52.7  24.2  2.12  0.00  0.00  0.00  0.00  0.00  0.00   1.6  0.00  0.00  0.00  0.00
 2023  33   154    71  15.9  -6.0 31.13 14.05  0.99  2.88 236.4  5.73 0.967  6.70  5469     9   799  4661  2683  1978     0  0.00     0     0   514     0 373.9 11.46  11.0     0     0  2136   214  1.17  0.81  50.4  15.8  1.30  0.00  0.00  0.00  0.00  0.00  0.00   1.1  0.00  0.00  0.00  0.00
 2023  34   155    72  16.9  -6.0 32.00 14.25  0.99  2.88 235.4  5.99 1.016  7.00  5678     9   825  4845  2819  2027     0  0.00     0     0   486     0 382.3 12.14  10.0     0     0  2180   212  1.19  0.82  94.8  28.8  1.07  0.00  0.00  0.18  0.00  0.00  0.00   1.2  0.00  0.00  0.00  0.00
 2023  35   156    73  16.9  -6.0 32.87 14.44  1.00  2.88 244.3  6.23 1.067  7.30  5896     9   850  5037  2954  2083     0  0.00     0     0   464     0 390.7 12.83   9.2     0     0  2225   211  1.20  0.82  89.4  26.1  5.67  0.00  0.00  0.00  0.00  0.00  0.00   2.0  0.00  0.00  0.00  0.00
 2023  36   157    74  18.1  -6.0 33.81 14.65  1.00  2.88 244.6  6.47 1.116  7.59  6113     9   875  5229  3085  2144     0  0.00     0     0   446     0 399.8 13.60   8.5     0     0  2272   210  1.22  0.82  84.3  24.0  7.11  0.00  0.00  0.00  0.00  0.00  0.00   2.0  0.00  0.00  0.00  0.00
 2023  37   158    75  16.7  -6.0 34.67 14.85  1.00  2.88 234.8  6.70 1.164  7.86  6323     9   899  5415  3210  2205     0  0.00     0     0   429     0 408.3 14.33   7.9     0     0  2272   209  1.22  0.83  81.2  25.0  7.79  0.00  0.00  0.00  0.00  0.00  0.00   2.0  0.00  0.00  0.00  0.00
 2023  38   159    76  16.2  -6.0 35.51 15.04  1.00  2.88 255.1  6.93 1.214  8.14  6551     9   924  5619  3339  2280     0  0.00     0     0   418     0 416.4 15.06   7.4     0     0  2272   207  1.22  0.83  77.7  22.4  7.05  0.00  0.00  0.00  0.00  0.00  0.00   2.0  0.00  0.00  0.00  0.00
 2023  39   160    77  18.1  -6.0 36.45 15.25  1.00  2.88 262.4  7.15 1.266  8.41  6786     9   950  5828  3465  2363     0  0.00     0     0   411     0 425.6 15.90   7.0     0     0  2272   206  1.22  0.83  73.9  19.7  5.73  0.00  0.00  0.00  0.00  0.00  0.00   2.0  0.00  0.00  0.00  0.00
 2023  40   161    78  15.1  -6.0 37.23 15.42  1.00  2.88 265.4  7.34 1.318  8.66  7026     9   975  6042  3593  2450     0  0.00     0     0   405     0 433.3 16.62   6.7     0     0  2239   204  1.22  0.84  70.3  19.5  4.89  0.00  0.00  0.00  0.00  0.00  0.00   2.0  0.00  0.00  0.00  0.00
 2023  41   162    79  17.1  -6.0 38.11 15.62  1.00  2.88 233.9  7.50 1.364  8.87  7235     9   997  6230  3702  2527     0  0.00     0     0   399     0 442.0 17.46   6.4     0     0  2203   203  1.22  0.84  67.0  20.2  4.51  0.00  0.00  0.00  0.00  0.00  0.00   2.0  0.00  0.00  0.00  0.00
 2023  42   163    80  14.0  -6.0 38.84 15.78  1.00  2.88  84.7  7.57 1.384  8.96  7307     9  1004  6294  3742  2552     0  0.00     0     0   376     0 449.2 18.15   6.0     0     0  2174   202  1.22  0.84  65.9  59.8 11.31  0.00  0.00  0.00  0.00  0.00  0.00   2.0  0.00  0.00  0.00  0.00
 2023  43   164    81  15.7  -6.0 39.65 15.97  1.00  2.88 238.3  7.73 1.430  9.16  7521     9  1025  6488  3826  2661     0  0.00     0     0   375     0 457.3 18.94   5.8     0     0  2142   202  1.22  0.85  62.6  19.4  3.61  0.00  0.00  0.00  0.00  0.00  0.00   2.0  0.00  0.00  0.00  0.00
 2023  44   165    82  13.9  -6.0 40.41 16.13  1.00  2.88 160.8  7.84 1.463  9.30  7665     9  1039  6617  3878  2739     0  0.00     0     0   366     0 464.5 19.65   5.5     0     0  2115   202  1.22  0.85  60.6  29.2  4.62  0.00  0.00  0.00  0.00  0.00  0.00   2.0  0.00  0.00  0.00  0.00
 2023  45   166    83  13.7  -6.0 41.21 16.13  1.00  2.88 239.8  7.75 1.489  9.24  7889     9  1060  6821  3924  2876     0  0.00     0     0   448    21 464.5 20.37   6.6     0     0  2089   198  1.22  0.85  57.4  18.4  2.71  0.00  0.00  0.00  0.00  0.00  0.00   2.0  0.00  0.00  0.00  0.00
 2023  46   167    84  14.2  -6.0 42.03 16.13  1.00  2.88 247.0  7.67 1.516  9.19  8122     9  1080  7033  3901  3089     0  0.00     0     0   533    42 464.5 21.12   7.6     0     0  2063   197  1.22  0.86  57.9  18.0  2.19  0.00  0.00  0.00  0.00  0.00  0.00   2.0  0.00  0.00  0.00  0.00
 2023  47   168    85  14.1  -6.0 42.86 16.13  1.00  2.88 272.8  7.59 1.547  9.13  8378     9  1102  7267  3878  3325     0  0.00     0     0   625    64 464.5 21.88   8.7     0     0  2038   196  1.22  0.86  54.3  15.3  2.62  0.00  0.00  0.00  0.00  0.00  0.00   2.0  0.00  0.00  0.00  0.00
 2023  48   169    86  12.8  -6.0 43.60 16.13  1.00  2.88 196.7  7.51 1.568  9.08  8564     9  1118  7437  3858  3495     0  0.00     0     0   696    84 464.5 22.59   9.5     0     0  2016   195  1.22  0.86  98.5  39.0  2.71  0.00  0.00  0.00  0.00  0.00  0.00   2.0  0.00  0.00  0.00  0.00
 2023  49   170    87  17.4  -6.0 44.61 16.13  1.00  2.88 175.1  7.41 1.582  8.99  8729     9  1131  7589  3826  3653     0  0.00     0     0   768   111 464.5 23.56  10.3     0     0  1987   194  1.21  0.87 104.8  43.1 11.97  0.00  0.00  0.00  0.00  0.00  0.00   2.0  0.00  0.00  0.00  0.00
 2023  50   171    88  18.8  -6.0 45.70 16.13  1.00  2.88 153.6  7.30 1.592  8.90  8873     9  1141  7723  3794  3790     0  0.00     0     0   837   140 464.5 24.62  11.0     0     0  1957   193  1.21  0.87  91.8  41.8 14.77  0.00  0.00  0.00  0.00  0.00  0.00   2.0  0.00  0.00  0.00  0.00
 2023  51   172    89  18.3  -6.0 46.77 16.13  1.00  2.88 189.4  7.20 1.608  8.81  9052     9  1154  7890  3763  3959     0  0.00     0     0   915   168 464.5 25.66  11.9     0     0  1927   191  1.21  0.88  85.6  31.8 12.46  0.00  0.00  0.00  0.00  0.00  0.00   2.0  0.00  0.00  0.00  0.00
 2023  52   173    90  16.3  -6.0 47.72 16.13  1.00  2.88 175.0  7.10 1.624  8.73  9218     9  1165  8045  3736  4115     0  0.00     0     0   987   193 464.5 26.61  12.6     0     0  1902   190  1.21  0.88  83.6  35.5 14.38  0.00  0.00  0.00  0.00  0.00  0.00   2.0  0.00  0.00  0.00  0.00
 2023  53   174    91  15.3  -6.0 48.61 16.13  1.00  2.88 288.3  7.02 1.658  8.68  9493     9  1184  8301  3710  4374     0  0.00     0     0  1088   217 464.5 27.50  13.5     0     0  1879   189  1.21  0.89  79.8  20.9  8.99  0.00  0.00  0.00  0.00  0.00  0.00   2.0  0.00  0.00  0.00  0.00
 2023  54   175    92  16.1  -6.0 49.55 16.13  1.00  2.88 289.7  6.93 1.691  8.62  9769     9  1201  8559  3681  4519     0  0.00   118   118  1191   242 464.5 28.46  14.3     0     0  1855   188  1.21  0.89  75.8  19.1  8.41  0.00  0.00  0.00  0.00  0.00  0.00   2.0  0.00  0.00  0.00  0.00
 2023  55   176    93  13.1  -6.0 51.07 16.13  1.00  2.88 186.4  6.85 1.711  8.56  9947     9  1212  8727  3659  4586     0  0.00   218   194  1261   263 464.5 29.25  14.9     0     0  1837   187  1.21  0.90  73.4  30.7 11.10  0.00  0.00  0.00  0.00  0.00  0.00   2.0  0.00  0.00  0.00  0.00
 2023  56   177    94  15.6  -6.0 54.20 16.13  1.00  2.88 183.5  6.78 1.723  8.51 10123     9  1222  8893  3639  4660     0  0.00   312   269  1330   281 464.5 30.19  15.4     0     0  1816   186  1.21  0.90  70.9  28.6  9.33  0.00  0.00  0.00  0.00  0.00  0.00   2.0  0.00  0.00  0.00  0.00
 2023  57   178    95  17.0  -6.0 57.59 16.13  1.00  2.88 298.2  6.71 1.753  8.46 10410     9  1235  9167  3618  4789     0  0.00   459   394  1432   301 464.5 31.23  16.2     0     0  1794   185  1.21  0.92  66.8  16.2  4.92  0.00  0.00  0.00  0.00  0.00  0.00   2.0  0.00  0.00  0.00  0.00
 2023  58   179    96  16.0  -6.0 61.99 16.13  1.00  2.88 298.1  6.64 1.785  8.42 10700     9  1246  9445  3599  4905     0  0.00   622   521  1534   320 464.5 32.22  16.8     0     0  1773   184  1.21  0.93  62.7  15.4  4.04  0.00  0.00  0.00  0.00  0.00  0.00   2.0  0.00  0.00  0.00  0.00
 2023  59   180    97  16.1  -6.0 70.01 16.13  1.00  2.88 263.6  6.33 1.812  8.14 10957     9  1253  9695  3448  5032     0  0.00   793   635  1712   423 464.5 33.22  18.5     0     0  1754   184  1.21  0.95  59.0  16.3  3.54  0.00  0.00  0.00  0.00  0.00  0.00   2.0  0.00  0.00  0.00  0.00
 2023  60   181    98  12.6  -6.0 70.98 16.13  0.99  2.88  90.2  6.02 1.814  7.84 11045     9  1254  9782  3295  5068     0  0.00   893   674  1841   526 464.5 34.01  19.9 18917 .0000  1739   183  1.21  0.96  57.9  51.4  8.95  0.00  0.00  0.00  0.00  0.00  0.00   2.0  0.00  0.00  0.00  0.00
 2023  61   182    99  14.6  -6.0 72.11 16.13  0.99  2.88 308.7  5.78 1.852  7.63 11350     9  1258 10083  3175  5223    15  0.00  1064   826  1998   607 464.5 34.93  21.1 18917 .0001  1722   182  1.21  0.97  53.9  13.4  2.33  0.00  0.00  0.00  0.00  0.00  0.00   2.0  0.00  0.00  0.00  0.00
 2023  62   183   100  14.9  -6.0 73.25 16.13  0.99  2.88 315.4  5.49 1.837  7.33 11662     9  1261 10392  3034  5403    47  0.00  1208   858  2369   701 464.5 35.87  24.6 18917 .0002  1705   181  1.21  0.98  49.6  11.9  1.72  0.00  0.00  0.00  0.00  0.00  0.00   2.0  0.00  0.00  0.00  0.00
 2023  63   184   101  14.5  -6.0 74.36 16.13  0.99  2.88 316.2  5.21 1.823  7.03 11974     9  1264 10702  2889  5624    94  0.01  1298   905  2728   797 464.5 36.78  27.8 18917 .0005  1690   180  1.21  0.98  45.4  10.8  1.30  0.00  0.00  0.00  0.00  0.00  0.00   2.0  0.00  0.00  0.00  0.00
 2023  64   185   102  15.5  -6.0 75.56 16.13  0.98  2.73 303.4  4.93 1.808  6.74 12274     9  1266 10999  2748  5816   166  0.02  1379   977  3046   890 464.5 37.76  30.6 18917 .0009  1673   180  1.21  0.98  41.1   9.4  0.95  0.10  0.05  0.27  0.00  0.00  0.00   2.0  0.00  0.00  0.00  0.00
 2023  65   186   103  16.9  -6.0 76.86 16.13  0.98  2.11 226.0  4.64 1.792  6.43 12497     9  1268 11221  2596  5928   270  0.02  1436  1081  3264   991 464.5 38.83  32.8 18917 .0014  1656   179  1.21  0.98  37.9   8.8  0.74  0.53  0.26  0.43  0.00  0.00  0.00   2.0  0.00  0.00  0.00  0.00
 2023  66   187   104  16.9  -6.0 78.15 16.13  0.97  2.22 184.0  4.32 1.776  6.09 12679     9  1269 11401  2428  5993   398  0.03  1482  1209  3425  1100 464.5 39.90  34.6 18917 .0021  1640   178  1.21  0.98  87.7  26.6  0.77  0.46  0.23  0.41  0.00  0.00  0.00   2.0  0.00  0.00  0.00  0.00
 2023  67   188   105  18.4  -6.0 79.57 16.13  0.97  2.88 277.5  4.00 1.759  5.76 12953     9  1271 11673  2260  6099   564  0.05  1540  1375  3641  1210 464.5 41.06  36.8 18917 .0030  1622   177  1.21  0.98  83.6  21.2  5.82  0.00  0.00  0.00  0.00  0.00  0.00   2.0  0.00  0.00  0.00  0.00
 2023  68   189   106  19.7  -6.0 80.22 16.13  0.95  2.88 300.2  3.65 1.742  5.39 13249     9  1274 11967  2075  6193   773  0.06  1598  1584  3846  1329 464.5 42.32  39.0 18917 .0041  1603   176  1.21  0.98  79.0  18.1  7.71  0.00  0.00  0.00  0.00  0.00  0.00   2.0  0.00  0.00  0.00  0.00
 2023  69   190   107  19.4  -6.0 80.52 16.13  0.95  2.88 309.0  3.46 1.725  5.18 13555     9  1276 12270  1976  6272   991  0.08  1637  1802  3996  1395 464.5 43.55  40.4 18917 .0052  1585   175  1.21  0.98  74.2  16.7  7.66  0.00  0.00  0.00  0.00  0.00  0.00   2.0  0.00  0.00  0.00  0.00
 2023  70   191   108  19.6  -6.0 80.82 16.13  0.94  2.88 302.3  3.34 1.708  5.04 13853     9  1278 12566  1919  6336  1211  0.10  1666  2022  4111  1434 464.5 44.81  41.4 18917 .0064  1568   174  1.21  0.98  69.5  16.0  6.76  0.00  0.00  0.00  0.00  0.00  0.00   2.0  0.00  0.00  0.00  0.00
 2023  71   192   109  22.8  -6.0 81.18 16.13  0.94  2.88 299.2  3.22 1.688  4.90 14149     9  1281 12860  1860  6372  1467  0.11  1686  2278  4189  1474 464.5 46.26  42.2 18917 .0078  1549   173  1.21  0.98  64.5  14.2  4.64  0.00  0.00  0.00  0.00  0.00  0.00   2.0  0.00  0.18  0.00  0.00
 2023  72   193   110  22.0  -6.0 81.52 16.13  0.93  2.88 303.9  3.08 1.670  4.75 14449     9  1283 13157  1792  6420  1714  0.13  1711  2525  4286  1521 464.5 47.67  43.2 18917 .0091  1531   172  1.21  0.98  59.4  13.1  3.50  0.00  0.00  0.00  0.00  0.00  0.00   2.0  0.00  0.13  0.00  0.00
 2023  73   194   111  19.8  -6.0 81.83 16.13  0.92  2.88 309.2  2.95 1.654  4.60 14754     9  1285 13460  1725  6491  1937  0.14  1743  2747  4412  1566 464.5 48.94  44.3 18917 .0102  1516   171  1.21  0.98  54.5  12.3  2.60  0.00  0.00  0.00  0.00  0.00  0.00   2.0  0.00  0.00  0.00  0.00
 2023  74   195   112  19.5  -6.0 82.13 16.13  0.91  2.88 269.4  2.83 1.638  4.47 15020     9  1287 13724  1664  6534  2155  0.16  1765  2966  4498  1606 464.5 50.19  45.1 18917 .0114  1502   170  1.21  0.98  50.2  13.1  2.16  0.00  0.00  0.00  0.00  0.00  0.00   2.0  0.00  0.00  0.00  0.00
 2023  75   196   113  20.5  -6.0 82.45 16.13  0.90  2.88 244.6  2.71 1.622  4.33 15262     9  1289 13964  1603  6550  2385  0.17  1780  3196  4547  1646 464.5 51.51  45.8 18917 .0126  1487   169  1.21  0.98  46.4  13.3  1.79  0.00  0.00  0.00  0.00  0.00  0.00   2.0  0.00  0.03  0.00  0.00
 2023  76   197   114  20.0  -6.0 82.76 16.13  0.89  2.88 103.6  2.59 1.607  4.20 15363     9  1289 14066  1539  6465  2610  0.19  1763  3421  4466  1688 464.5 52.80  45.7 18917 .0138  1474   168  1.21  0.98  99.4  69.1  3.38  0.00  0.00  0.00  0.00  0.00  0.00   2.0  0.00  0.00  0.00  0.00
 2023  77   198   115  19.0  -6.0 83.05 16.13  0.88  2.88 278.8  2.47 1.593  4.06 15638     9  1291 14339  1476  6519  2824  0.20  1790  3635  4566  1730 464.5 54.03  46.7 18917 .0149  1461   167  1.20  0.98 117.8  30.5  7.93  0.00  0.00  0.00  0.00  0.00  0.00   2.0  0.00  0.00  0.00  0.00
 2023  78   199   116  19.0  -6.0 83.35 16.13  0.87  2.88 289.0  2.36 1.579  3.93 15924     9  1293 14622  1415  6582  3038  0.21  1818  3849  4675  1769 464.5 55.26  47.6 18917 .0161  1448   167  1.20  0.98 101.0  25.2  9.17  0.00  0.00  0.00  0.00  0.00  0.00   2.0  0.00  0.00  0.00  0.00
 2023  79   200   117  19.0  -6.0 83.65 16.13  0.85  2.88 282.4  2.24 1.565  3.81 16203     9  1295 14899  1354  6639  3252  0.22  1845  4063  4777  1808 464.5 56.49  48.6 18917 .0172  1436   166  1.20  0.98  86.8  22.4  9.05  0.00  0.00  0.00  0.00  0.00  0.00   2.0  0.00  0.00  0.00  0.00
 2023  80   201   118  20.1  -6.0 83.96 16.13  0.84  2.88 275.5  2.13 1.551  3.68 16475     9  1297 15169  1292  6683  3478  0.23  1868  4289  4861  1848 464.5 57.79  49.4 18917 .0184  1425   165  1.20  0.98  81.3  21.4  9.62  0.00  0.00  0.00  0.00  0.00  0.00   2.0  0.00  0.01  0.00  0.00
 2023  81   202   119  20.2  -6.0 84.27 16.13  0.82  2.88 270.7  2.01 1.537  3.55 16742     9  1299 15434  1226  6722  3706  0.24  1890  4517  4941  1890 464.5 59.11  50.2 18917 .0196  1413   164  1.20  0.98  76.5  20.1  9.19  0.00  0.00  0.00  0.00  0.00  0.00   2.0  0.00  0.02  0.00  0.00
 2023  82   203   120  19.6  -6.0 84.58 16.13  0.80  2.88 275.7  1.89 1.524  3.42 17014     9  1301 15704  1159  6772  3926  0.25  1916  4737  5033  1932 464.5 60.38  51.1 18917 .0208  1402   163  1.20  0.98  72.0  19.0  8.40  0.00  0.00  0.00  0.00  0.00  0.00   2.0  0.00  0.00  0.00  0.00
 2023  83   204   121  17.6  -6.0 84.85 16.13  0.78  2.88 287.6  1.78 1.512  3.29 17298     9  1304 15986  1094  6847  4123  0.26  1949  4934  5158  1973 464.5 61.52  52.2 18917 .0218  1393   163  1.20  0.98  68.1  18.0  6.79  0.00  0.00  0.00  0.00  0.00  0.00   2.0  0.00  0.00  0.00  0.00
 2023  84   205   122  17.1  -6.0 85.11 16.13  0.76  2.88 269.0  1.68 1.501  3.18 17564     9  1306 16250  1035  6912  4315  0.27  1978  5126  5266  2009 464.5 62.64  53.1 18917 .0228  1384   162  1.20  0.98  64.5  18.5  5.80  0.00  0.00  0.00  0.00  0.00  0.00   2.0  0.00  0.00  0.00  0.00
 2023  85   206   123  17.5  -6.0 85.39 16.13  0.74  2.88 264.2  1.58 1.490  3.06 17825     9  1308 16509   977  6970  4512  0.27  2005  5323  5364  2045 464.5 63.78  53.9 18917 .0239  1376   161  1.20  0.98  61.0  17.6  4.80  0.00  0.00  0.00  0.00  0.00  0.00   2.0  0.00  0.00  0.00  0.00
 2023  86   207   124  17.5  -6.0 85.66 16.13  0.71  2.88 199.5  1.47 1.479  2.95 18022     9  1309 16704   917  6979  4709  0.28  2017  5520  5399  2082 464.5 64.93  54.5 18917 .0249  1368   161  1.20  0.98  58.3  22.4  5.36  0.00  0.00  0.00  0.00  0.00  0.00   2.0  0.00  0.00  0.00  0.00
 2023  87   208   125  18.8  -6.0 85.95 16.13  0.69  2.88 232.1  1.37 1.467  2.84 18251     9  1311 16932   857  7003  4920  0.29  2033  5731  5453  2119 464.5 66.16  55.1 18917 .0260  1360   160  1.20  0.98  55.1  17.8  3.70  0.00  0.00  0.00  0.00  0.00  0.00   2.0  0.00  0.00  0.00  0.00
 2023  88   209   126  18.0  -6.0 86.23 16.13  0.66  2.88 231.6  1.26 1.456  2.72 18479     9  1312 17159   792  7034  5122  0.30  2053  5933  5517  2158 464.5 67.34  55.8 18917 .0271  1352   159  1.20  0.98  52.0  17.1  3.00  0.00  0.00  0.00  0.00  0.00  0.00   2.0  0.00  0.00  0.00  0.00
 2023  89   210   127  19.3  -6.0 86.53 16.13  0.63  2.88 218.6  1.16 1.444  2.60 18695     9  1314 17373   730  7044  5339  0.31  2065  6150  5552  2196 464.5 68.60  56.4 18917 .0282  1344   159  1.20  0.98  49.0  16.8  2.51  0.00  0.00  0.00  0.00  0.00  0.00   2.0  0.00  0.00  0.00  0.00
[...]
 2023  39   160    67  18.1  -6.0 31.68 13.17  0.69  0.74  45.6  1.38 0.232  1.61  1862    15   358  1489   623   866     0  0.00     0     0   495     0 285.8 6.487  33.3     0     0  1063   222  1.08  0.74  41.3  17.6  0.26  1.00  0.74  0.80  0.00  0.00  0.00   2.0  0.00  0.00  0.00  0.00
 2023  40   161    68  15.1  -6.0 32.46 13.35  0.70  0.74  47.5  1.41 0.239  1.65  1894    15   365  1514   641   872     0  0.00     0     0   490     0 296.4 6.757  32.4     0     0  1063   220  1.09  0.74  41.6  18.2  0.26  1.00  0.74  0.80  0.00  0.00  0.00   2.0  0.00  0.00  0.00  0.00
 2023  41   162    69  17.1  -6.0 33.35 13.55  0.71  0.79  45.0  1.46 0.248  1.70  1923    15   371  1536   666   871     0  0.00     0     0   475     0 307.5 7.070  30.9     0     0  1063   219  1.11  0.75  42.1  19.8  0.27  1.00  0.73  0.79  0.00  0.00  0.00   2.0  0.00  0.00  0.00  0.00
 2023  42   163    70  14.0  -6.0 34.07 13.71  0.73  2.31  48.3  1.56 0.266  1.82  1965    15   377  1573   719   854     0  0.00     0     0   433     0 309.5 7.330  27.5     0     0  1063   217  1.12  0.81  42.4  58.9  0.80  0.40  0.20  0.38  0.00  0.00  0.00   1.3  0.00  0.00  0.00  0.00
 2023  43   164    71  15.7  -6.0 34.88 13.89  0.74  0.75  45.5  1.59 0.274  1.86  1994    15   383  1596   737   859     0  0.00     0     0   425     0 321.4 7.625  26.6     0     0  1063   215  1.13  0.75  42.8  19.6  0.26  1.00  0.74  0.80  0.00  0.00  0.00   1.7  0.00  0.00  0.00  0.00
 2023  44   165    72  13.9  -6.0 35.60 14.05  0.75  1.14  47.3  1.65 0.286  1.93  2025    15   389  1620   770   850     0  0.00     0     0   399     0 333.4 7.892  24.6     0     0  1063   214  1.14  0.77  43.1  30.4  0.40  1.00  0.60  0.69  0.00  0.00  0.00   1.7  0.00  0.00  0.00  0.00
 2023  45   166    73  13.7  -6.0 36.31 14.21  0.76  0.74  46.3  1.68 0.295  1.98  2054    15   396  1643   793   850     0  0.00     0     0   384     0 345.7 8.158  23.4     0     0  1063   213  1.16  0.76  43.4  19.9  0.26  1.00  0.74  0.80  0.00  0.00  0.00   2.0  0.00  0.00  0.00  0.00
 2023  46   167    74  14.2  -6.0 37.04 14.38  0.77  0.70  45.9  1.71 0.303  2.02  2083    15   402  1665   814   851     0  0.00     0     0   370     0 358.4 8.438  22.2     0     0  1044   210  1.17  0.76  44.6  19.7  0.24  1.00  0.76  0.81  0.00  0.00  0.00   2.0  0.00  0.00  0.00  0.00
 2023  47   168    75  14.1  -6.0 37.77 14.54  0.77  0.66  48.2  1.74 0.311  2.05  2113    15   409  1689   834   855     0  0.00     0     0   359     0 371.4 8.723  21.3     0     0  1025   208  1.18  0.76  44.0  17.3  0.23  1.00  0.77  0.82  0.00  0.00  0.00   2.0  0.00  0.00  0.00  0.00
 2023  48   169    76  12.8  -6.0 38.43 14.69  0.78  0.87  45.9  1.77 0.321  2.09  2141    15   415  1711   858   854     0  0.00     0     0   341     0 384.4 8.984  19.9     0     0  1008   207  1.19  0.77  44.2  24.4  0.30  1.00  0.70  0.77  0.00  0.00  0.00   2.0  0.00  0.00  0.00  0.00
 2023  49   170    77  17.4  -6.0 39.33 14.89  0.78  0.89  42.0  1.80 0.329  2.12  2165    15   420  1730   877   853     0  0.00     0     0   326     0 398.4 9.345  18.8     0     0   987   205  1.20  0.77  51.2  29.1  0.31  1.00  0.69  0.76  0.00  0.00  0.00   2.0  0.00  0.00  0.00  0.00
 2023  50   171    78  18.8  -6.0 40.34 15.11  0.80  2.88 120.4  1.90 0.356  2.26  2275    15   431  1829   939   890     0  0.00     0     0   311     0 401.1 9.740  17.0     0     0   964   202  1.20  0.85  49.0  30.4  1.22  0.00  0.00  0.06  0.00  0.00  0.00   2.0  0.00  0.00  0.00  0.00
 2023  51   172    79  18.3  -6.0 41.40 15.11  0.79  1.48  78.3  1.83 0.358  2.19  2347    15   439  1892   914   959     0  0.00     0     0   349    19 401.1 10.13  18.6     0     0   942   201  1.20  0.80  47.3  23.4  0.52  0.97  0.48  0.60  0.00  0.00  0.00   2.0  0.00  0.00  0.00  0.00
 2023  52   173    80  16.3  -6.0 42.35 15.11  0.78  1.38  66.6  1.77 0.359  2.13  2408    15   447  1946   889  1019     0  0.00     0     0   383    37 401.1 10.49  20.1     0     0   924   199  1.20  0.81  46.2  26.6  0.48  1.00  0.52  0.63  0.00  0.00  0.00   2.0  0.00  0.00  0.00  0.00
 2023  53   174    81  15.3  -6.0 43.24 15.11  0.77  0.79  61.9  1.71 0.360  2.07  2464    15   454  1995   866  1074     0  0.00     0     0   415    55 401.1 10.83  21.4     0     0   907   198  1.20  0.79  44.8  16.2  0.28  1.00  0.72  0.79  0.00  0.00  0.00   2.0  0.00  0.00  0.00  0.00
 2023  54   175    82  16.1  -6.0 44.18 15.11  0.75  0.71  55.0  1.65 0.359  2.01  2514    15   461  2038   842  1125     0  0.00     0     0   445    72 401.1 11.20  22.7     0     0   890   197  1.20  0.79  44.0  15.6  0.25  1.00  0.75  0.81  0.00  0.00  0.00   2.0  0.00  0.00  0.00  0.00
 2023  55   176    83  13.1  -6.0 44.95 15.11  0.74  1.14  56.1  1.60 0.360  1.96  2566    15   467  2084   820  1176     0  0.00     0     0   475    88 401.1 11.50  23.8     0     0   876   195  1.20  0.81  43.3  25.9  0.40  1.00  0.60  0.69  0.00  0.00  0.00   2.0  0.00  0.00  0.00  0.00
 2023  56   177    84  15.6  -6.0 45.86 15.11  0.73  1.08  51.3  1.55 0.359  1.91  2613    15   472  2125   796  1225     0  0.00     0     0   504   104 401.1 11.87  24.9     0     0   860   194  1.20  0.81  42.6  25.0  0.37  1.00  0.63  0.71  0.00  0.00  0.00   2.0  0.00  0.00  0.00  0.00
 2023  57   178    85  17.0  -6.0 46.84 15.11  0.72  0.64  48.5  1.49 0.359  1.85  2657    15   478  2164   773  1270     0  0.00     0     0   532   121 401.1 12.27  26.1     0     0   843   193  1.20  0.80  42.0  15.1  0.22  1.00  0.78  0.83  0.00  0.00  0.00   2.0  0.00  0.00  0.00  0.00
 2023  58   179    86  16.0  -6.0 47.77 15.11  0.71  0.64  47.6  1.44 0.358  1.80  2701    15   483  2203   750  1315     0  0.00     0     0   560   137 401.1 12.65  27.1     0     0   828   192  1.20  0.81  41.4  15.3  0.22  1.00  0.78  0.83  0.00  0.00  0.00   2.0  0.00  0.00  0.00  0.00
 2023  59   180    87  16.1  -6.0 48.71 15.11  0.69  0.71  46.0  1.39 0.357  1.74  2743    15   488  2240   728  1359     0  0.00     0     0   587   153 401.1 13.04  28.1     0     0   813   190  1.20  0.81  40.8  17.3  0.25  1.00  0.75  0.81  0.00  0.00  0.00   2.0  0.00  0.00  0.00  0.00
 2023  60   181    88  12.6  -6.0 49.44 15.11  0.69  2.26  49.4  1.37 0.362  1.73  2790    15   491  2283   723  1383     0  0.00    20    20   605   158 401.1 13.35  28.4     0     0   802   189  1.20  0.87  40.2  56.0  0.79  0.43  0.21  0.39  0.00  0.00  0.00   2.0  0.00  0.00  0.00  0.00
 2023  61   182    89  14.6  -6.0 51.02 15.11  0.67  0.62  45.9  1.32 0.362  1.68  2832    15   496  2321   701  1394     0  0.00    52    37   631   173 401.1 13.71  29.4     0     0   789   188  1.20  0.82  39.6  15.5  0.21  1.00  0.79  0.83  0.00  0.00  0.00   2.0  0.00  0.00  0.00  0.00
 2023  62   183    90  14.9  -6.0 54.00 15.11  0.66  0.59  44.0  1.28 0.365  1.65  2872    15   500  2357   684  1405     0  0.00    83    53   654   185 401.1 14.08  30.1     0     0   776   187  1.20  0.83  39.0  15.0  0.21  1.00  0.79  0.84  0.00  0.00  0.00   2.0  0.00  0.00  0.00  0.00
 2023  63   184    91  14.5  -6.0 56.89 15.11  0.65  0.58  42.7  1.24 0.369  1.61  2912    15   504  2393   667  1416     0  0.00   113    69   677   197 401.1 14.44  30.8     0     0   764   186  1.20  0.84  38.5  14.9  0.20  1.00  0.80  0.84  0.00  0.00  0.00   2.0  0.00  0.00  0.00  0.00
 2023  64   185    92  15.5  -6.0 59.99 15.11  0.64  0.55  40.6  1.20 0.372  1.57  2950    15   507  2427   650  1427     0  0.00   142    85   699   209 401.1 14.83  31.5     0     0   751   185  1.20  0.85  38.0  14.4  0.19  1.00  0.81  0.85  0.00  0.00  0.00   2.0  0.00  0.00  0.00  0.00
 2023  65   186    93  16.9  -6.0 68.41 15.11  0.61  0.56  38.8  1.12 0.374  1.50  2986    15   510  2461   610  1443     0  0.00   173   100   736   235 401.1 15.26  33.1     0     0   738   184  1.20  0.86  37.5  14.7  0.19  1.00  0.81  0.85  0.00  0.00  0.00   2.0  0.00  0.00  0.00  0.00
 2023  66   187    94  16.9  -6.0 71.05 15.11  0.59  0.73  37.9  1.04 0.377  1.42  3022    15   512  2494   569  1458     0  0.00   204   116   773   263 401.1 15.69  34.6     0     0   725   183  1.20  0.89  37.0  19.4  0.25  1.00  0.75  0.80  0.00  0.00  0.00   2.0  0.00  0.00  0.00  0.00
 2023  67   188    95  18.4  -6.0 72.47 15.11  0.56  0.62  36.0  0.96 0.379  1.34  3056    15   514  2527   528  1471     2  0.00   236   133   807   289 401.1 16.16  36.1  6651 .0000   711   181  1.20  0.90  36.5  16.7  0.22  1.00  0.78  0.83  0.00  0.00  0.00   2.0  0.00  0.00  0.00  0.00
 2023  68   189    96  19.7  -6.0 73.98 15.11  0.52  0.57  34.2  0.87 0.375  1.25  3088    15   515  2558   485  1487     9  0.00   260   139   860   318 401.1 16.67  38.6  6651 .0001   697   180  1.20  0.91  36.0  15.6  0.20  1.00  0.80  0.85  0.00  0.00  0.00   2.0  0.00  0.00  0.00  0.00
 2023  69   190    97  19.4  -6.0 75.48 15.11  0.49  0.57  33.6  0.79 0.371  1.16  3120    15   516  2589   441  1513    18  0.01   270   149   911   347 401.1 17.17  41.0  6651 .0003   684   179  1.20  0.93  35.5  15.8  0.20  1.00  0.80  0.85  0.00  0.00  0.00   2.0  0.00  0.00  0.00  0.00
 2023  70   191    98  19.6  -6.0 76.99 15.11  0.45  0.60  32.6  0.70 0.368  1.07  3152    15   516  2620   397  1537    32  0.01   279   162   957   375 401.1 17.67  43.2  6651 .0005   670   177  1.20  0.95  35.1  17.0  0.21  1.00  0.79  0.84  0.00  0.00  0.00   2.0  0.00  0.00  0.00  0.00
 2023  71   192    99  22.8  -6.0 78.74 15.11  0.41  0.60  30.0  0.62 0.364  0.98  3181    15   517  2649   353  1553    52  0.02   287   182   994   404 401.1 18.26  45.3  6651 .0008   655   176  1.20  0.97  34.7  17.3  0.21  1.00  0.79  0.84  0.00  0.00  0.00   2.0  0.00  0.18  0.00  0.00
 2023  72   193   100  22.0  -6.0 80.09 15.11  0.36  0.64  29.7  0.53 0.360  0.89  3210    15   516  2678   304  1568    76  0.03   295   207  1030   435 401.1 18.83  47.5  6651 .0011   641   174  1.20  0.98  34.2  18.7  0.22  1.00  0.78  0.83  0.00  0.00  0.00   2.0  0.00  0.13  0.00  0.00
 2023  73   194   101  19.8  -6.0 80.39 15.11  0.32  0.71  30.0  0.46 0.357  0.81  3239    15   516  2708   264  1580   102  0.04   302   232  1060   461 401.1 19.34  49.4  6651 .0015   629   173  1.20  0.98  33.8  21.2  0.25  1.00  0.75  0.81  0.00  0.00  0.00   2.0  0.00  0.00  0.00  0.00
 2023  74   195   102  19.5  -6.0 80.69 15.11  0.30  0.90  29.5  0.43 0.353  0.78  3268    15   516  2736   248  1586   127  0.05   305   257  1074   471 401.1 19.84  50.2  6651 .0019   618   172  1.20  0.98  33.4  27.1  0.31  1.00  0.69  0.76  0.00  0.00  0.00   2.0  0.00  0.00  0.00  0.00
 2023  75   196   103  20.5  -6.0 81.01 15.11  0.29  1.00  28.4  0.39 0.350  0.74  3295    15   516  2764   232  1591   153  0.06   307   283  1086   481 401.1 20.37  51.0  6651 .0023   606   170  1.20  0.98  33.1  30.7  0.35  1.00  0.65  0.73  0.00  0.00  0.00   2.0  0.00  0.03  0.00  0.00
 2023  76   197   104  20.0  -6.0 81.32 15.11  0.27  2.49  28.4  0.37 0.347  0.72  3323    15   516  2792   220  1595   179  0.06   309   309  1096   489 401.1 20.89  51.6  6651 .0027   595   169  1.20  0.98  43.8  99.9  0.87  0.27  0.13  0.33  0.00  0.00  0.00   2.0  0.00  0.00  0.00  0.00
 2023  77   198   105  19.0  -6.0 81.62 15.11  0.26  2.88  85.1  0.35 0.344  0.69  3407    15   516  2876   209  1646   203  0.07   321   333  1163   497 401.1 21.38  53.4  6651 .0031   585   168  1.20  0.98  69.8  62.6  4.12  0.00  0.00  0.00  0.00  0.00  0.00   2.0  0.00  0.00  0.00  0.00
 2023  78   199   106  19.0  -6.0 81.91 15.11  0.24  2.88  84.8  0.33 0.341  0.67  3491    15   517  2959   198  1697   227  0.08   333   358  1228   504 401.1 21.87  55.2  6651 .0034   575   167  1.20  0.98  66.3  59.7  9.85  0.00  0.00  0.00  0.00  0.00  0.00   2.0  0.00  0.00  0.00  0.00
 2023  79   200   107  19.0  -6.0 82.21 15.11  0.23  2.88  79.7  0.31 0.338  0.65  3569    15   517  3037   186  1744   252  0.08   344   382  1289   511 401.1 22.36  56.7  6651 .0038   566   166  1.20  0.98  65.1  63.6 11.85  0.00  0.00  0.00  0.00  0.00  0.00   2.0  0.00  0.00  0.00  0.00
 2023  80   201   108  20.1  -6.0 82.52 15.11  0.22  2.88  74.7  0.29 0.335  0.62  3643    15   518  3110   175  1785   278  0.09   354   408  1344   518 401.1 22.88  58.1  6651 .0042   556   165  1.20  0.98  64.0  66.6 12.29  0.00  0.00  0.00  0.00  0.00  0.00   2.0  0.00  0.01  0.00  0.00
 2023  81   202   109  20.2  -6.0 82.83 15.11  0.20  2.88  70.3  0.27 0.332  0.60  3712    15   518  3179   163  1824   304  0.10   363   434  1395   526 401.1 23.41  59.4  6651 .0046   547   163  1.20  0.98  62.9  68.0 11.97  0.00  0.00  0.00  0.00  0.00  0.00   2.0  0.00  0.02  0.00  0.00
 2023  82   203   110  19.6  -6.0 83.13 15.11  0.19  2.88  68.2  0.24 0.329  0.57  3779    15   518  3246   151  1861   329  0.10   372   459  1444   534 401.1 23.91  60.6  6651 .0049   539   162  1.20  0.98  62.0  70.5 10.74  0.00  0.00  0.00  0.00  0.00  0.00   2.0  0.00  0.00  0.00  0.00
 2023  83   204   111  17.6  -6.0 83.41 15.11  0.17  2.88  67.5  0.22 0.327  0.55  3846    15   519  3312   139  1900   351  0.11   381   482  1495   541 401.1 24.37  61.8  6651 .0053   531   161  1.20  0.98  61.0  73.0  9.87  0.00  0.00  0.00  0.00  0.00  0.00   2.0  0.00  0.00  0.00  0.00
 2023  84   205   112  17.1  -6.0 83.67 15.11  0.16  2.88  59.8  0.20 0.324  0.53  3905    15   519  3370   128  1932   373  0.11   389   504  1539   548 401.1 24.81  62.8  6651 .0056   524   160  1.20  0.98  60.2  82.1 10.06  0.00  0.00  0.00  0.00  0.00  0.00   2.0  0.00  0.00  0.00  0.00
 2023  85   206   113  17.5  -6.0 83.94 15.11  0.15  2.88  55.6  0.19 0.322  0.51  3959    15   519  3425   117  1961   396  0.12   396   526  1577   555 401.1 25.27  63.7  6651 .0059   517   160  1.20  0.98  59.4  85.7  9.72  0.00  0.00  0.00  0.00  0.00  0.00   2.0  0.00  0.00  0.00  0.00
 2023  86   207   114  17.5  -6.0 84.21 15.11  0.13  2.88  39.7  0.17 0.320  0.49  3998    15   519  3464   106  1978   418  0.12   401   549  1600   561 401.1 25.72  64.4  6651 .0063   511   159  1.20  0.98  58.8  99.9 12.63  0.00  0.00  0.00  0.00  0.00  0.00   2.0  0.00  0.00  0.00  0.00
 2023  87   208   115  18.8  -6.0 84.50 15.11  0.12  2.88  43.3  0.15 0.317  0.47  4041    15   519  3506    95  1995   442  0.13   405   573  1626   568 401.1 26.21  65.1  6651 .0066   504   158  1.20  0.98  58.2  99.9 10.70  0.00  0.00  0.00  0.00  0.00  0.00   2.0  0.00  0.00  0.00  0.00
 2023  88   209   116  18.0  -6.0 84.78 15.11  0.10  2.88  40.2  0.13 0.315  0.44  4080    15   519  3546    83  2012   465  0.13   410   596  1649   576 401.1 26.68  65.8  6651 .0070   497   157  1.20  0.98  57.6  99.9 11.05  0.00  0.00  0.00  0.00  0.00  0.00   2.0  0.00  0.00  0.00  0.00
 2023  89   210   117  19.3  -6.0 85.08 15.11  0.09  2.88  34.7  0.11 0.313  0.42  4114    15   519  3580    71  2022   490  0.14   413   620  1665   583 401.1 27.18  66.4  6651 .0074   490   156  1.20  0.98  57.1  99.9 11.65  0.00  0.00  0.00  0.00  0.00  0.00   2.0  0.00  0.00  0.00  0.00
 2023  90   211   118  18.7  -6.0 85.37 15.11  0.07  2.88  33.0  0.09 0.310  0.40  4146    15   519  3612    59  2032   514  0.14   417   644  1681   590 401.1 27.66  67.0  6651 .0077   484   155  1.20  0.98  56.6  99.9 11.59  0.00  0.00  0.00  0.00  0.00  0.00   2.0  0.00  0.00  0.00  0.00
 2023  91   212   119  19.4  -6.0 85.67 15.11  0.06  2.88  26.4  0.07 0.308  0.38  4172    15   519  3638    46  2036   539  0.15   419   669  1690   598 401.1 28.16  67.6  6651 .0081   478   154  1.20  0.98  56.2  99.9 13.22  0.00  0.00  0.00  0.00  0.00  0.00   2.0  0.00  0.00  0.00  0.00
 2023  92   213   120  20.8  -6.0 85.99 15.11  0.04  2.88  20.4  0.05 0.305  0.36  4191    15   518  3658    33  2034   566  0.15   420   696  1691   605 401.1 28.70  68.0  6651 .0085   471   153  1.20  0.98  55.8  99.9 15.00  0.00  0.00  0.00  0.00  0.00  0.00   2.0  0.00  0.06  0.00  0.00
 2023  93   214   121  18.6  -6.0 86.28 15.11  0.02  2.88  14.1  0.03 0.303  0.33  4205    15   518  3672    19  2029   589  0.16   420   720  1689   613 401.1 29.19  68.4  6651 .0089   466   152  1.20  0.98  55.6  99.9 15.00  0.00  0.00  0.00  0.00  0.00  0.00   2.0  0.00  0.00  0.00  0.00
 2023  94   215   122  17.1  -6.0 86.54 15.11  0.01  2.88   8.9  0.01 0.301  0.31  4213    15   518  3680     7  2022   611  0.17   420   742  1683   621 401.1 29.63  68.8  6651 .0092   460   150  1.20  0.98  55.4  99.9 15.00  0.00  0.00  0.00  0.00  0.00  0.00   2.0  0.00  0.00  0.00  0.00
 2023  95   216   123  15.9  -6.0 86.79 15.11  0.00  2.88   3.0  0.00 0.300  0.30  4216    15   517  3683     0  2009   632  0.17   418   762  1670   625 401.1 30.04  68.8  6651 .0095   456   -99  1.20  0.98  55.3  99.9 15.00  0.00  0.00  0.00  0.00  0.00  0.00   2.0  0.00  0.00  0.00  0.00
 2023  96   217   124  15.9  -6.0 87.04 15.11  0.00  0.00   0.0  0.00 0.298  0.30  4216    15   517  3683     0  1992   652  0.18   415   782  1649   625 401.1 30.45  68.5  6651 .0098   451   -99  1.20  0.98  55.3  99.9 15.00  0.00  0.00  0.00  0.00  0.00  0.00   2.0  0.00  0.00  0.00  0.00
 2023  97   218   125  17.3  -6.0 87.30 15.11  0.00  0.00   0.0  0.00 0.296  0.30  4215    15   517  3683     0  1974   674  0.18   411   804  1627   625 401.1 30.90  68.2  6651 .0101   447   -99  1.20  0.98  55.2  99.9 15.00  0.00  0.00  0.00  0.00  0.00  0.00   2.0  0.00  0.00  0.00  0.00
 2023  98   219   126  19.2  -6.0 87.60 15.11  0.00  0.00   0.0  0.00 0.294  0.29  4215    15   516  3683     0  1953   699  0.19   406   829  1603   625 401.1 31.40  67.9  6651 .0105   441   -99  1.20  0.98  55.1  99.9 15.00  0.00  0.00  0.00  0.00  0.00  0.00   2.0  0.00  0.00  0.00  0.00
 2023  99   220   127  20.0  -6.0 87.91 15.11  0.00  0.00   0.0  0.00 0.292  0.29  4214    15   516  3683     0  1932   724  0.20   402   855  1577   625 401.1 31.91  67.6  6651 .0109   436   -99  1.20  0.98  55.1  99.9 15.00  0.00  0.00  0.00  0.00  0.00  0.00   2.0  0.00  0.00  0.00  0.00
 2023 100   221   128  19.5  -6.0 88.21 15.11  0.00  0.00   0.0  0.00 0.290  0.29  4214    15   515  3683     0  1912   749  0.20   398   880  1552   625 401.1 32.41  67.2  6651 .0113   431   -99  1.20  0.98  55.0  99.9 15.00  0.00  0.00  0.00  0.00  0.00  0.00   2.0  0.00  0.00  0.00  0.00
 2023 101   222   129  21.5  -6.0 88.54 15.11  0.00  0.00   0.0  0.00 0.287  0.29  4213    15   514  3683     0  1883   777  0.21   394   907  1524   629 401.1 32.97  66.9  6651 .0117   426   -99  1.20  0.98  55.0  99.9 15.00  0.00  0.00  0.00  0.00  0.00  0.00   2.0  0.00  0.10  0.00  0.00
 2023 102   223   130  20.7  -6.0 88.86 15.11  0.00  0.00   0.0  0.00 0.283  0.28  4212    15   514  3683     0  1855   803  0.22   391   934  1498   633 401.1 33.50  66.7  6651 .0121   421   -99  1.20  0.98  54.9  99.9 15.00  0.00  0.00  0.00  0.00  0.00  0.00   2.0  0.00  0.04  0.00  0.00
 2023 103   224   131  20.1  -6.0 89.17 15.11  0.00  0.00   0.0  0.00 0.281  0.28  4212    15   513  3683     0  1829   829  0.23   388   960  1472   637 401.1 34.02  66.4  6651 .0125   416   -99  1.20  0.98  54.9  99.9 15.00  0.00  0.00  0.00  0.00  0.00  0.00   2.0  0.00  0.01  0.00  0.00
 2023 104   225   132  20.2  -6.0 89.49 15.11  0.00  0.00   0.0  0.00 0.278  0.28  4211    15   513  3683     0  1802   855  0.23   385   986  1446   641 401.1 34.54  66.1  6651 .0129   412   -99  1.20  0.98  54.8  99.9 15.00  0.00  0.00  0.00  0.00  0.00  0.00   2.0  0.00  0.01  0.00  0.00
 2023 105   226   133  19.8  -6.0 89.79 15.11  0.00  0.00   0.0  0.00 0.275  0.27  4211    15   512  3683     0  1776   880  0.24   382  1011  1421   645 401.1 35.04  65.8  6651 .0132   408   -99  1.20  0.98  54.8  99.9 15.00  0.00  0.00  0.00  0.00  0.00  0.00   2.0  0.00  0.00  0.00  0.00
 2023 106   227   134  21.2  -6.0 90.39 15.11  0.00  0.00   0.0  0.00 0.272  0.27  4210    15   512  3683     0  1756   898  0.24   380  1028  1403   649 401.1 35.59  65.7  6651 .0135   403   -99  1.20  0.98  54.7  99.9 15.00  0.00  0.00  0.00  0.00  0.00  0.00   2.0  0.00  0.08  0.00  0.00
